nohup: ignoring input
=================================================
 Compiling C Workloads for RISC-V...
=================================================
Compiling pointer_chasing_wl.c -> pointer_chaser_workload...
Compiling compute_bound_wl.c -> compute_bound_workload...
Compiling streaming_kernel_wl.c -> streaming_workload...
All workloads compiled successfully.

-------------------------------------------------
 WORKLOAD: compute_bound_workload
 SAVING TO: results/compute_bound_workload/rob_64
 PARAMS: --ROB-entries=64 --issue-width=4 --commit-width=4 --l1i-size=32kB --l1i-assoc=8 --l1d-size=32kB --l1d-assoc=8 --l2-size=256kB --l2-assoc=16 --l1i-replace-policy=LRU --l1d-replace-policy=LRU --l2-replace-policy=LRU --branch-predictor-enable --branch-predictor-type=TournamentBP --mem-dep-pred-enable --l1d-prefetcher-type=StridePrefetcher --l2-prefetcher-type=TaggedPrefetcher
-------------------------------------------------
warn: Base 10 memory/cache size 32kB will be cast to base 2 size 32KiB.
warn: Base 10 memory/cache size 32kB will be cast to base 2 size 32KiB.
warn: Base 10 memory/cache size 256kB will be cast to base 2 size 256KiB.
Global frequency set at 1000000000000 ticks per second
src/arch/riscv/isa.cc:279: info: RVV enabled, VLEN = 256 bits, ELEN = 64 bits
src/base/statistics.hh:279: warn: One of the stats is a legacy stat. Legacy stat is a stat that does not belong to any statistics::Group. Legacy stat is deprecated.
src/base/remote_gdb.cc:418: warn: Sockets disabled, not accepting gdb connections
gem5 Simulator System.  https://www.gem5.org
gem5 is copyrighted software; use the --copyright option for details.

gem5 version 24.1.0.3
gem5 compiled Sep 28 2025 00:02:15
gem5 started Sep 30 2025 09:33:58
gem5 executing on arpit-linux, pid 79095
command line: ../gem5/build/RISCV/gem5.opt --outdir=results/compute_bound_workload/rob_64 test.py --isa=RISCV --binary=compute_bound_workload --cpu-type=O3 --ROB-entries=64 --issue-width=4 --commit-width=4 --l1i-size=32kB --l1i-assoc=8 --l1d-size=32kB --l1d-assoc=8 --l2-size=256kB --l2-assoc=16 --l1i-replace-policy=LRU --l1d-replace-policy=LRU --l2-replace-policy=LRU --branch-predictor-enable --branch-predictor-type=TournamentBP --mem-dep-pred-enable --l1d-prefetcher-type=StridePrefetcher --l2-prefetcher-type=TaggedPrefetcher

info: Standard input is not a terminal, disabling listeners.
src/sim/simulate.cc:199: info: Entering event queue @ 0.  Starting simulation...
src/sim/syscall_emul.cc:97: warn: ignoring syscall set_robust_list(...)
      (further warnings will be suppressed)
src/sim/syscall_emul.hh:1117: warn: readlink() called on '/proc/self/exe' may yield unexpected results in various settings.
      Returning '/home/arpit/Desktop/iitd/sem_7/COL718/projects/OoO-and-Speculation/compute_bound_workload'
src/sim/mem_state.cc:448: info: Increasing stack size by one page.
src/sim/syscall_emul.cc:86: warn: ignoring syscall mprotect(...)
Starting compute-bound workload...
Compute-bound workload complete. Final result (to prevent optimization): -3.759111
Exiting @ tick 4157652852 because exiting with last active thread context.
Simulation finished for results/compute_bound_workload/rob_64.

-------------------------------------------------
 WORKLOAD: compute_bound_workload
 SAVING TO: results/compute_bound_workload/rob_128
 PARAMS: --ROB-entries=128 --issue-width=4 --commit-width=4 --l1i-size=32kB --l1i-assoc=8 --l1d-size=32kB --l1d-assoc=8 --l2-size=256kB --l2-assoc=16 --l1i-replace-policy=LRU --l1d-replace-policy=LRU --l2-replace-policy=LRU --branch-predictor-enable --branch-predictor-type=TournamentBP --mem-dep-pred-enable --l1d-prefetcher-type=StridePrefetcher --l2-prefetcher-type=TaggedPrefetcher
-------------------------------------------------
warn: Base 10 memory/cache size 32kB will be cast to base 2 size 32KiB.
warn: Base 10 memory/cache size 32kB will be cast to base 2 size 32KiB.
warn: Base 10 memory/cache size 256kB will be cast to base 2 size 256KiB.
Global frequency set at 1000000000000 ticks per second
src/arch/riscv/isa.cc:279: info: RVV enabled, VLEN = 256 bits, ELEN = 64 bits
src/base/statistics.hh:279: warn: One of the stats is a legacy stat. Legacy stat is a stat that does not belong to any statistics::Group. Legacy stat is deprecated.
src/base/remote_gdb.cc:418: warn: Sockets disabled, not accepting gdb connections
gem5 Simulator System.  https://www.gem5.org
gem5 is copyrighted software; use the --copyright option for details.

gem5 version 24.1.0.3
gem5 compiled Sep 28 2025 00:02:15
gem5 started Sep 30 2025 09:34:20
gem5 executing on arpit-linux, pid 79556
command line: ../gem5/build/RISCV/gem5.opt --outdir=results/compute_bound_workload/rob_128 test.py --isa=RISCV --binary=compute_bound_workload --cpu-type=O3 --ROB-entries=128 --issue-width=4 --commit-width=4 --l1i-size=32kB --l1i-assoc=8 --l1d-size=32kB --l1d-assoc=8 --l2-size=256kB --l2-assoc=16 --l1i-replace-policy=LRU --l1d-replace-policy=LRU --l2-replace-policy=LRU --branch-predictor-enable --branch-predictor-type=TournamentBP --mem-dep-pred-enable --l1d-prefetcher-type=StridePrefetcher --l2-prefetcher-type=TaggedPrefetcher

info: Standard input is not a terminal, disabling listeners.
src/sim/simulate.cc:199: info: Entering event queue @ 0.  Starting simulation...
src/sim/syscall_emul.cc:97: warn: ignoring syscall set_robust_list(...)
      (further warnings will be suppressed)
src/sim/syscall_emul.hh:1117: warn: readlink() called on '/proc/self/exe' may yield unexpected results in various settings.
      Returning '/home/arpit/Desktop/iitd/sem_7/COL718/projects/OoO-and-Speculation/compute_bound_workload'
src/sim/mem_state.cc:448: info: Increasing stack size by one page.
src/sim/syscall_emul.cc:86: warn: ignoring syscall mprotect(...)
Starting compute-bound workload...
Compute-bound workload complete. Final result (to prevent optimization): -3.759111
Exiting @ tick 4177366785 because exiting with last active thread context.
Simulation finished for results/compute_bound_workload/rob_128.

-------------------------------------------------
 WORKLOAD: compute_bound_workload
 SAVING TO: results/compute_bound_workload/rob_192
 PARAMS: --ROB-entries=192 --issue-width=4 --commit-width=4 --l1i-size=32kB --l1i-assoc=8 --l1d-size=32kB --l1d-assoc=8 --l2-size=256kB --l2-assoc=16 --l1i-replace-policy=LRU --l1d-replace-policy=LRU --l2-replace-policy=LRU --branch-predictor-enable --branch-predictor-type=TournamentBP --mem-dep-pred-enable --l1d-prefetcher-type=StridePrefetcher --l2-prefetcher-type=TaggedPrefetcher
-------------------------------------------------
warn: Base 10 memory/cache size 32kB will be cast to base 2 size 32KiB.
warn: Base 10 memory/cache size 32kB will be cast to base 2 size 32KiB.
warn: Base 10 memory/cache size 256kB will be cast to base 2 size 256KiB.
Global frequency set at 1000000000000 ticks per second
src/arch/riscv/isa.cc:279: info: RVV enabled, VLEN = 256 bits, ELEN = 64 bits
src/base/statistics.hh:279: warn: One of the stats is a legacy stat. Legacy stat is a stat that does not belong to any statistics::Group. Legacy stat is deprecated.
src/base/remote_gdb.cc:418: warn: Sockets disabled, not accepting gdb connections
gem5 Simulator System.  https://www.gem5.org
gem5 is copyrighted software; use the --copyright option for details.

gem5 version 24.1.0.3
gem5 compiled Sep 28 2025 00:02:15
gem5 started Sep 30 2025 09:34:43
gem5 executing on arpit-linux, pid 79703
command line: ../gem5/build/RISCV/gem5.opt --outdir=results/compute_bound_workload/rob_192 test.py --isa=RISCV --binary=compute_bound_workload --cpu-type=O3 --ROB-entries=192 --issue-width=4 --commit-width=4 --l1i-size=32kB --l1i-assoc=8 --l1d-size=32kB --l1d-assoc=8 --l2-size=256kB --l2-assoc=16 --l1i-replace-policy=LRU --l1d-replace-policy=LRU --l2-replace-policy=LRU --branch-predictor-enable --branch-predictor-type=TournamentBP --mem-dep-pred-enable --l1d-prefetcher-type=StridePrefetcher --l2-prefetcher-type=TaggedPrefetcher

info: Standard input is not a terminal, disabling listeners.
src/sim/simulate.cc:199: info: Entering event queue @ 0.  Starting simulation...
src/sim/syscall_emul.cc:97: warn: ignoring syscall set_robust_list(...)
      (further warnings will be suppressed)
src/sim/syscall_emul.hh:1117: warn: readlink() called on '/proc/self/exe' may yield unexpected results in various settings.
      Returning '/home/arpit/Desktop/iitd/sem_7/COL718/projects/OoO-and-Speculation/compute_bound_workload'
src/sim/mem_state.cc:448: info: Increasing stack size by one page.
src/sim/syscall_emul.cc:86: warn: ignoring syscall mprotect(...)
Starting compute-bound workload...
Compute-bound workload complete. Final result (to prevent optimization): -3.759111
Exiting @ tick 4177109043 because exiting with last active thread context.
Simulation finished for results/compute_bound_workload/rob_192.

-------------------------------------------------
 WORKLOAD: compute_bound_workload
 SAVING TO: results/compute_bound_workload/rob_256
 PARAMS: --ROB-entries=256 --issue-width=4 --commit-width=4 --l1i-size=32kB --l1i-assoc=8 --l1d-size=32kB --l1d-assoc=8 --l2-size=256kB --l2-assoc=16 --l1i-replace-policy=LRU --l1d-replace-policy=LRU --l2-replace-policy=LRU --branch-predictor-enable --branch-predictor-type=TournamentBP --mem-dep-pred-enable --l1d-prefetcher-type=StridePrefetcher --l2-prefetcher-type=TaggedPrefetcher
-------------------------------------------------
warn: Base 10 memory/cache size 32kB will be cast to base 2 size 32KiB.
warn: Base 10 memory/cache size 32kB will be cast to base 2 size 32KiB.
warn: Base 10 memory/cache size 256kB will be cast to base 2 size 256KiB.
Global frequency set at 1000000000000 ticks per second
src/arch/riscv/isa.cc:279: info: RVV enabled, VLEN = 256 bits, ELEN = 64 bits
src/base/statistics.hh:279: warn: One of the stats is a legacy stat. Legacy stat is a stat that does not belong to any statistics::Group. Legacy stat is deprecated.
src/base/remote_gdb.cc:418: warn: Sockets disabled, not accepting gdb connections
gem5 Simulator System.  https://www.gem5.org
gem5 is copyrighted software; use the --copyright option for details.

gem5 version 24.1.0.3
gem5 compiled Sep 28 2025 00:02:15
gem5 started Sep 30 2025 09:35:06
gem5 executing on arpit-linux, pid 79915
command line: ../gem5/build/RISCV/gem5.opt --outdir=results/compute_bound_workload/rob_256 test.py --isa=RISCV --binary=compute_bound_workload --cpu-type=O3 --ROB-entries=256 --issue-width=4 --commit-width=4 --l1i-size=32kB --l1i-assoc=8 --l1d-size=32kB --l1d-assoc=8 --l2-size=256kB --l2-assoc=16 --l1i-replace-policy=LRU --l1d-replace-policy=LRU --l2-replace-policy=LRU --branch-predictor-enable --branch-predictor-type=TournamentBP --mem-dep-pred-enable --l1d-prefetcher-type=StridePrefetcher --l2-prefetcher-type=TaggedPrefetcher

info: Standard input is not a terminal, disabling listeners.
src/sim/simulate.cc:199: info: Entering event queue @ 0.  Starting simulation...
src/sim/syscall_emul.cc:97: warn: ignoring syscall set_robust_list(...)
      (further warnings will be suppressed)
src/sim/syscall_emul.hh:1117: warn: readlink() called on '/proc/self/exe' may yield unexpected results in various settings.
      Returning '/home/arpit/Desktop/iitd/sem_7/COL718/projects/OoO-and-Speculation/compute_bound_workload'
src/sim/mem_state.cc:448: info: Increasing stack size by one page.
src/sim/syscall_emul.cc:86: warn: ignoring syscall mprotect(...)
Starting compute-bound workload...
Compute-bound workload complete. Final result (to prevent optimization): -3.759111
Exiting @ tick 4177109043 because exiting with last active thread context.
Simulation finished for results/compute_bound_workload/rob_256.

-------------------------------------------------
 WORKLOAD: compute_bound_workload
 SAVING TO: results/compute_bound_workload/width_2
 PARAMS: --issue-width=2 --commit-width=2 --ROB-entries=192 --l1i-size=32kB --l1i-assoc=8 --l1d-size=32kB --l1d-assoc=8 --l2-size=256kB --l2-assoc=16 --l1i-replace-policy=LRU --l1d-replace-policy=LRU --l2-replace-policy=LRU --branch-predictor-enable --branch-predictor-type=TournamentBP --mem-dep-pred-enable --l1d-prefetcher-type=StridePrefetcher --l2-prefetcher-type=TaggedPrefetcher
-------------------------------------------------
warn: Base 10 memory/cache size 32kB will be cast to base 2 size 32KiB.
warn: Base 10 memory/cache size 32kB will be cast to base 2 size 32KiB.
warn: Base 10 memory/cache size 256kB will be cast to base 2 size 256KiB.
Global frequency set at 1000000000000 ticks per second
src/arch/riscv/isa.cc:279: info: RVV enabled, VLEN = 256 bits, ELEN = 64 bits
src/base/statistics.hh:279: warn: One of the stats is a legacy stat. Legacy stat is a stat that does not belong to any statistics::Group. Legacy stat is deprecated.
src/base/remote_gdb.cc:418: warn: Sockets disabled, not accepting gdb connections
gem5 Simulator System.  https://www.gem5.org
gem5 is copyrighted software; use the --copyright option for details.

gem5 version 24.1.0.3
gem5 compiled Sep 28 2025 00:02:15
gem5 started Sep 30 2025 09:35:29
gem5 executing on arpit-linux, pid 80064
command line: ../gem5/build/RISCV/gem5.opt --outdir=results/compute_bound_workload/width_2 test.py --isa=RISCV --binary=compute_bound_workload --cpu-type=O3 --issue-width=2 --commit-width=2 --ROB-entries=192 --l1i-size=32kB --l1i-assoc=8 --l1d-size=32kB --l1d-assoc=8 --l2-size=256kB --l2-assoc=16 --l1i-replace-policy=LRU --l1d-replace-policy=LRU --l2-replace-policy=LRU --branch-predictor-enable --branch-predictor-type=TournamentBP --mem-dep-pred-enable --l1d-prefetcher-type=StridePrefetcher --l2-prefetcher-type=TaggedPrefetcher

info: Standard input is not a terminal, disabling listeners.
src/sim/simulate.cc:199: info: Entering event queue @ 0.  Starting simulation...
src/sim/syscall_emul.cc:97: warn: ignoring syscall set_robust_list(...)
      (further warnings will be suppressed)
src/sim/syscall_emul.hh:1117: warn: readlink() called on '/proc/self/exe' may yield unexpected results in various settings.
      Returning '/home/arpit/Desktop/iitd/sem_7/COL718/projects/OoO-and-Speculation/compute_bound_workload'
src/sim/mem_state.cc:448: info: Increasing stack size by one page.
src/sim/syscall_emul.cc:86: warn: ignoring syscall mprotect(...)
Starting compute-bound workload...
Compute-bound workload complete. Final result (to prevent optimization): -3.759111
Exiting @ tick 4181816997 because exiting with last active thread context.
Simulation finished for results/compute_bound_workload/width_2.

-------------------------------------------------
 WORKLOAD: compute_bound_workload
 SAVING TO: results/compute_bound_workload/width_4
 PARAMS: --issue-width=4 --commit-width=4 --ROB-entries=192 --l1i-size=32kB --l1i-assoc=8 --l1d-size=32kB --l1d-assoc=8 --l2-size=256kB --l2-assoc=16 --l1i-replace-policy=LRU --l1d-replace-policy=LRU --l2-replace-policy=LRU --branch-predictor-enable --branch-predictor-type=TournamentBP --mem-dep-pred-enable --l1d-prefetcher-type=StridePrefetcher --l2-prefetcher-type=TaggedPrefetcher
-------------------------------------------------
warn: Base 10 memory/cache size 32kB will be cast to base 2 size 32KiB.
warn: Base 10 memory/cache size 32kB will be cast to base 2 size 32KiB.
warn: Base 10 memory/cache size 256kB will be cast to base 2 size 256KiB.
Global frequency set at 1000000000000 ticks per second
src/arch/riscv/isa.cc:279: info: RVV enabled, VLEN = 256 bits, ELEN = 64 bits
src/base/statistics.hh:279: warn: One of the stats is a legacy stat. Legacy stat is a stat that does not belong to any statistics::Group. Legacy stat is deprecated.
src/base/remote_gdb.cc:418: warn: Sockets disabled, not accepting gdb connections
gem5 Simulator System.  https://www.gem5.org
gem5 is copyrighted software; use the --copyright option for details.

gem5 version 24.1.0.3
gem5 compiled Sep 28 2025 00:02:15
gem5 started Sep 30 2025 09:35:52
gem5 executing on arpit-linux, pid 80273
command line: ../gem5/build/RISCV/gem5.opt --outdir=results/compute_bound_workload/width_4 test.py --isa=RISCV --binary=compute_bound_workload --cpu-type=O3 --issue-width=4 --commit-width=4 --ROB-entries=192 --l1i-size=32kB --l1i-assoc=8 --l1d-size=32kB --l1d-assoc=8 --l2-size=256kB --l2-assoc=16 --l1i-replace-policy=LRU --l1d-replace-policy=LRU --l2-replace-policy=LRU --branch-predictor-enable --branch-predictor-type=TournamentBP --mem-dep-pred-enable --l1d-prefetcher-type=StridePrefetcher --l2-prefetcher-type=TaggedPrefetcher

info: Standard input is not a terminal, disabling listeners.
src/sim/simulate.cc:199: info: Entering event queue @ 0.  Starting simulation...
src/sim/syscall_emul.cc:97: warn: ignoring syscall set_robust_list(...)
      (further warnings will be suppressed)
src/sim/syscall_emul.hh:1117: warn: readlink() called on '/proc/self/exe' may yield unexpected results in various settings.
      Returning '/home/arpit/Desktop/iitd/sem_7/COL718/projects/OoO-and-Speculation/compute_bound_workload'
src/sim/mem_state.cc:448: info: Increasing stack size by one page.
src/sim/syscall_emul.cc:86: warn: ignoring syscall mprotect(...)
Starting compute-bound workload...
Compute-bound workload complete. Final result (to prevent optimization): -3.759111
Exiting @ tick 4177109043 because exiting with last active thread context.
Simulation finished for results/compute_bound_workload/width_4.

-------------------------------------------------
 WORKLOAD: compute_bound_workload
 SAVING TO: results/compute_bound_workload/width_8
 PARAMS: --issue-width=8 --commit-width=8 --ROB-entries=192 --l1i-size=32kB --l1i-assoc=8 --l1d-size=32kB --l1d-assoc=8 --l2-size=256kB --l2-assoc=16 --l1i-replace-policy=LRU --l1d-replace-policy=LRU --l2-replace-policy=LRU --branch-predictor-enable --branch-predictor-type=TournamentBP --mem-dep-pred-enable --l1d-prefetcher-type=StridePrefetcher --l2-prefetcher-type=TaggedPrefetcher
-------------------------------------------------
warn: Base 10 memory/cache size 32kB will be cast to base 2 size 32KiB.
warn: Base 10 memory/cache size 32kB will be cast to base 2 size 32KiB.
warn: Base 10 memory/cache size 256kB will be cast to base 2 size 256KiB.
Global frequency set at 1000000000000 ticks per second
src/arch/riscv/isa.cc:279: info: RVV enabled, VLEN = 256 bits, ELEN = 64 bits
src/base/statistics.hh:279: warn: One of the stats is a legacy stat. Legacy stat is a stat that does not belong to any statistics::Group. Legacy stat is deprecated.
src/base/remote_gdb.cc:418: warn: Sockets disabled, not accepting gdb connections
gem5 Simulator System.  https://www.gem5.org
gem5 is copyrighted software; use the --copyright option for details.

gem5 version 24.1.0.3
gem5 compiled Sep 28 2025 00:02:15
gem5 started Sep 30 2025 09:36:15
gem5 executing on arpit-linux, pid 80421
command line: ../gem5/build/RISCV/gem5.opt --outdir=results/compute_bound_workload/width_8 test.py --isa=RISCV --binary=compute_bound_workload --cpu-type=O3 --issue-width=8 --commit-width=8 --ROB-entries=192 --l1i-size=32kB --l1i-assoc=8 --l1d-size=32kB --l1d-assoc=8 --l2-size=256kB --l2-assoc=16 --l1i-replace-policy=LRU --l1d-replace-policy=LRU --l2-replace-policy=LRU --branch-predictor-enable --branch-predictor-type=TournamentBP --mem-dep-pred-enable --l1d-prefetcher-type=StridePrefetcher --l2-prefetcher-type=TaggedPrefetcher

info: Standard input is not a terminal, disabling listeners.
src/sim/simulate.cc:199: info: Entering event queue @ 0.  Starting simulation...
src/sim/syscall_emul.cc:97: warn: ignoring syscall set_robust_list(...)
      (further warnings will be suppressed)
src/sim/syscall_emul.hh:1117: warn: readlink() called on '/proc/self/exe' may yield unexpected results in various settings.
      Returning '/home/arpit/Desktop/iitd/sem_7/COL718/projects/OoO-and-Speculation/compute_bound_workload'
src/sim/mem_state.cc:448: info: Increasing stack size by one page.
src/sim/syscall_emul.cc:86: warn: ignoring syscall mprotect(...)
Starting compute-bound workload...
Compute-bound workload complete. Final result (to prevent optimization): -3.759111
Exiting @ tick 4177117368 because exiting with last active thread context.
Simulation finished for results/compute_bound_workload/width_8.

-------------------------------------------------
 WORKLOAD: compute_bound_workload
 SAVING TO: results/compute_bound_workload/l1_16kB_2way
 PARAMS: --l1i-size=16kB --l1d-size=16kB --l1i-assoc=2 --l1d-assoc=2 --ROB-entries=192 --issue-width=4 --commit-width=4 --l2-size=256kB --l2-assoc=16 --l1i-replace-policy=LRU --l1d-replace-policy=LRU --l2-replace-policy=LRU --branch-predictor-enable --branch-predictor-type=TournamentBP --mem-dep-pred-enable --l1d-prefetcher-type=StridePrefetcher --l2-prefetcher-type=TaggedPrefetcher
-------------------------------------------------
warn: Base 10 memory/cache size 16kB will be cast to base 2 size 16KiB.
warn: Base 10 memory/cache size 16kB will be cast to base 2 size 16KiB.
warn: Base 10 memory/cache size 256kB will be cast to base 2 size 256KiB.
Global frequency set at 1000000000000 ticks per second
src/arch/riscv/isa.cc:279: info: RVV enabled, VLEN = 256 bits, ELEN = 64 bits
src/base/statistics.hh:279: warn: One of the stats is a legacy stat. Legacy stat is a stat that does not belong to any statistics::Group. Legacy stat is deprecated.
src/base/remote_gdb.cc:418: warn: Sockets disabled, not accepting gdb connections
gem5 Simulator System.  https://www.gem5.org
gem5 is copyrighted software; use the --copyright option for details.

gem5 version 24.1.0.3
gem5 compiled Sep 28 2025 00:02:15
gem5 started Sep 30 2025 09:36:38
gem5 executing on arpit-linux, pid 80573
command line: ../gem5/build/RISCV/gem5.opt --outdir=results/compute_bound_workload/l1_16kB_2way test.py --isa=RISCV --binary=compute_bound_workload --cpu-type=O3 --l1i-size=16kB --l1d-size=16kB --l1i-assoc=2 --l1d-assoc=2 --ROB-entries=192 --issue-width=4 --commit-width=4 --l2-size=256kB --l2-assoc=16 --l1i-replace-policy=LRU --l1d-replace-policy=LRU --l2-replace-policy=LRU --branch-predictor-enable --branch-predictor-type=TournamentBP --mem-dep-pred-enable --l1d-prefetcher-type=StridePrefetcher --l2-prefetcher-type=TaggedPrefetcher

info: Standard input is not a terminal, disabling listeners.
src/sim/simulate.cc:199: info: Entering event queue @ 0.  Starting simulation...
src/sim/syscall_emul.cc:97: warn: ignoring syscall set_robust_list(...)
      (further warnings will be suppressed)
src/sim/syscall_emul.hh:1117: warn: readlink() called on '/proc/self/exe' may yield unexpected results in various settings.
      Returning '/home/arpit/Desktop/iitd/sem_7/COL718/projects/OoO-and-Speculation/compute_bound_workload'
src/sim/mem_state.cc:448: info: Increasing stack size by one page.
src/sim/syscall_emul.cc:86: warn: ignoring syscall mprotect(...)
Starting compute-bound workload...
Compute-bound workload complete. Final result (to prevent optimization): -3.759111
Exiting @ tick 4177116702 because exiting with last active thread context.
Simulation finished for results/compute_bound_workload/l1_16kB_2way.

-------------------------------------------------
 WORKLOAD: compute_bound_workload
 SAVING TO: results/compute_bound_workload/l1_16kB_4way
 PARAMS: --l1i-size=16kB --l1d-size=16kB --l1i-assoc=4 --l1d-assoc=4 --ROB-entries=192 --issue-width=4 --commit-width=4 --l2-size=256kB --l2-assoc=16 --l1i-replace-policy=LRU --l1d-replace-policy=LRU --l2-replace-policy=LRU --branch-predictor-enable --branch-predictor-type=TournamentBP --mem-dep-pred-enable --l1d-prefetcher-type=StridePrefetcher --l2-prefetcher-type=TaggedPrefetcher
-------------------------------------------------
warn: Base 10 memory/cache size 16kB will be cast to base 2 size 16KiB.
warn: Base 10 memory/cache size 16kB will be cast to base 2 size 16KiB.
warn: Base 10 memory/cache size 256kB will be cast to base 2 size 256KiB.
Global frequency set at 1000000000000 ticks per second
src/arch/riscv/isa.cc:279: info: RVV enabled, VLEN = 256 bits, ELEN = 64 bits
src/base/statistics.hh:279: warn: One of the stats is a legacy stat. Legacy stat is a stat that does not belong to any statistics::Group. Legacy stat is deprecated.
src/base/remote_gdb.cc:418: warn: Sockets disabled, not accepting gdb connections
gem5 Simulator System.  https://www.gem5.org
gem5 is copyrighted software; use the --copyright option for details.

gem5 version 24.1.0.3
gem5 compiled Sep 28 2025 00:02:15
gem5 started Sep 30 2025 09:37:01
gem5 executing on arpit-linux, pid 80792
command line: ../gem5/build/RISCV/gem5.opt --outdir=results/compute_bound_workload/l1_16kB_4way test.py --isa=RISCV --binary=compute_bound_workload --cpu-type=O3 --l1i-size=16kB --l1d-size=16kB --l1i-assoc=4 --l1d-assoc=4 --ROB-entries=192 --issue-width=4 --commit-width=4 --l2-size=256kB --l2-assoc=16 --l1i-replace-policy=LRU --l1d-replace-policy=LRU --l2-replace-policy=LRU --branch-predictor-enable --branch-predictor-type=TournamentBP --mem-dep-pred-enable --l1d-prefetcher-type=StridePrefetcher --l2-prefetcher-type=TaggedPrefetcher

info: Standard input is not a terminal, disabling listeners.
src/sim/simulate.cc:199: info: Entering event queue @ 0.  Starting simulation...
src/sim/syscall_emul.cc:97: warn: ignoring syscall set_robust_list(...)
      (further warnings will be suppressed)
src/sim/syscall_emul.hh:1117: warn: readlink() called on '/proc/self/exe' may yield unexpected results in various settings.
      Returning '/home/arpit/Desktop/iitd/sem_7/COL718/projects/OoO-and-Speculation/compute_bound_workload'
src/sim/mem_state.cc:448: info: Increasing stack size by one page.
src/sim/syscall_emul.cc:86: warn: ignoring syscall mprotect(...)
Starting compute-bound workload...
Compute-bound workload complete. Final result (to prevent optimization): -3.759111
Exiting @ tick 4177062090 because exiting with last active thread context.
Simulation finished for results/compute_bound_workload/l1_16kB_4way.

-------------------------------------------------
 WORKLOAD: compute_bound_workload
 SAVING TO: results/compute_bound_workload/l1_16kB_8way
 PARAMS: --l1i-size=16kB --l1d-size=16kB --l1i-assoc=8 --l1d-assoc=8 --ROB-entries=192 --issue-width=4 --commit-width=4 --l2-size=256kB --l2-assoc=16 --l1i-replace-policy=LRU --l1d-replace-policy=LRU --l2-replace-policy=LRU --branch-predictor-enable --branch-predictor-type=TournamentBP --mem-dep-pred-enable --l1d-prefetcher-type=StridePrefetcher --l2-prefetcher-type=TaggedPrefetcher
-------------------------------------------------
warn: Base 10 memory/cache size 16kB will be cast to base 2 size 16KiB.
warn: Base 10 memory/cache size 16kB will be cast to base 2 size 16KiB.
warn: Base 10 memory/cache size 256kB will be cast to base 2 size 256KiB.
Global frequency set at 1000000000000 ticks per second
src/arch/riscv/isa.cc:279: info: RVV enabled, VLEN = 256 bits, ELEN = 64 bits
src/base/statistics.hh:279: warn: One of the stats is a legacy stat. Legacy stat is a stat that does not belong to any statistics::Group. Legacy stat is deprecated.
src/base/remote_gdb.cc:418: warn: Sockets disabled, not accepting gdb connections
gem5 Simulator System.  https://www.gem5.org
gem5 is copyrighted software; use the --copyright option for details.

gem5 version 24.1.0.3
gem5 compiled Sep 28 2025 00:02:15
gem5 started Sep 30 2025 09:37:24
gem5 executing on arpit-linux, pid 80944
command line: ../gem5/build/RISCV/gem5.opt --outdir=results/compute_bound_workload/l1_16kB_8way test.py --isa=RISCV --binary=compute_bound_workload --cpu-type=O3 --l1i-size=16kB --l1d-size=16kB --l1i-assoc=8 --l1d-assoc=8 --ROB-entries=192 --issue-width=4 --commit-width=4 --l2-size=256kB --l2-assoc=16 --l1i-replace-policy=LRU --l1d-replace-policy=LRU --l2-replace-policy=LRU --branch-predictor-enable --branch-predictor-type=TournamentBP --mem-dep-pred-enable --l1d-prefetcher-type=StridePrefetcher --l2-prefetcher-type=TaggedPrefetcher

info: Standard input is not a terminal, disabling listeners.
src/sim/simulate.cc:199: info: Entering event queue @ 0.  Starting simulation...
src/sim/syscall_emul.cc:97: warn: ignoring syscall set_robust_list(...)
      (further warnings will be suppressed)
src/sim/syscall_emul.hh:1117: warn: readlink() called on '/proc/self/exe' may yield unexpected results in various settings.
      Returning '/home/arpit/Desktop/iitd/sem_7/COL718/projects/OoO-and-Speculation/compute_bound_workload'
src/sim/mem_state.cc:448: info: Increasing stack size by one page.
src/sim/syscall_emul.cc:86: warn: ignoring syscall mprotect(...)
Starting compute-bound workload...
Compute-bound workload complete. Final result (to prevent optimization): -3.759111
Exiting @ tick 4177151334 because exiting with last active thread context.
Simulation finished for results/compute_bound_workload/l1_16kB_8way.

-------------------------------------------------
 WORKLOAD: compute_bound_workload
 SAVING TO: results/compute_bound_workload/l1_32kB_2way
 PARAMS: --l1i-size=32kB --l1d-size=32kB --l1i-assoc=2 --l1d-assoc=2 --ROB-entries=192 --issue-width=4 --commit-width=4 --l2-size=256kB --l2-assoc=16 --l1i-replace-policy=LRU --l1d-replace-policy=LRU --l2-replace-policy=LRU --branch-predictor-enable --branch-predictor-type=TournamentBP --mem-dep-pred-enable --l1d-prefetcher-type=StridePrefetcher --l2-prefetcher-type=TaggedPrefetcher
-------------------------------------------------
warn: Base 10 memory/cache size 32kB will be cast to base 2 size 32KiB.
warn: Base 10 memory/cache size 32kB will be cast to base 2 size 32KiB.
warn: Base 10 memory/cache size 256kB will be cast to base 2 size 256KiB.
Global frequency set at 1000000000000 ticks per second
src/arch/riscv/isa.cc:279: info: RVV enabled, VLEN = 256 bits, ELEN = 64 bits
src/base/statistics.hh:279: warn: One of the stats is a legacy stat. Legacy stat is a stat that does not belong to any statistics::Group. Legacy stat is deprecated.
src/base/remote_gdb.cc:418: warn: Sockets disabled, not accepting gdb connections
gem5 Simulator System.  https://www.gem5.org
gem5 is copyrighted software; use the --copyright option for details.

gem5 version 24.1.0.3
gem5 compiled Sep 28 2025 00:02:15
gem5 started Sep 30 2025 09:37:48
gem5 executing on arpit-linux, pid 81156
command line: ../gem5/build/RISCV/gem5.opt --outdir=results/compute_bound_workload/l1_32kB_2way test.py --isa=RISCV --binary=compute_bound_workload --cpu-type=O3 --l1i-size=32kB --l1d-size=32kB --l1i-assoc=2 --l1d-assoc=2 --ROB-entries=192 --issue-width=4 --commit-width=4 --l2-size=256kB --l2-assoc=16 --l1i-replace-policy=LRU --l1d-replace-policy=LRU --l2-replace-policy=LRU --branch-predictor-enable --branch-predictor-type=TournamentBP --mem-dep-pred-enable --l1d-prefetcher-type=StridePrefetcher --l2-prefetcher-type=TaggedPrefetcher

info: Standard input is not a terminal, disabling listeners.
src/sim/simulate.cc:199: info: Entering event queue @ 0.  Starting simulation...
src/sim/syscall_emul.cc:97: warn: ignoring syscall set_robust_list(...)
      (further warnings will be suppressed)
src/sim/syscall_emul.hh:1117: warn: readlink() called on '/proc/self/exe' may yield unexpected results in various settings.
      Returning '/home/arpit/Desktop/iitd/sem_7/COL718/projects/OoO-and-Speculation/compute_bound_workload'
src/sim/mem_state.cc:448: info: Increasing stack size by one page.
src/sim/syscall_emul.cc:86: warn: ignoring syscall mprotect(...)
Starting compute-bound workload...
Compute-bound workload complete. Final result (to prevent optimization): -3.759111
Exiting @ tick 4177316835 because exiting with last active thread context.
Simulation finished for results/compute_bound_workload/l1_32kB_2way.

-------------------------------------------------
 WORKLOAD: compute_bound_workload
 SAVING TO: results/compute_bound_workload/l1_32kB_4way
 PARAMS: --l1i-size=32kB --l1d-size=32kB --l1i-assoc=4 --l1d-assoc=4 --ROB-entries=192 --issue-width=4 --commit-width=4 --l2-size=256kB --l2-assoc=16 --l1i-replace-policy=LRU --l1d-replace-policy=LRU --l2-replace-policy=LRU --branch-predictor-enable --branch-predictor-type=TournamentBP --mem-dep-pred-enable --l1d-prefetcher-type=StridePrefetcher --l2-prefetcher-type=TaggedPrefetcher
-------------------------------------------------
warn: Base 10 memory/cache size 32kB will be cast to base 2 size 32KiB.
warn: Base 10 memory/cache size 32kB will be cast to base 2 size 32KiB.
warn: Base 10 memory/cache size 256kB will be cast to base 2 size 256KiB.
Global frequency set at 1000000000000 ticks per second
src/arch/riscv/isa.cc:279: info: RVV enabled, VLEN = 256 bits, ELEN = 64 bits
src/base/statistics.hh:279: warn: One of the stats is a legacy stat. Legacy stat is a stat that does not belong to any statistics::Group. Legacy stat is deprecated.
src/base/remote_gdb.cc:418: warn: Sockets disabled, not accepting gdb connections
gem5 Simulator System.  https://www.gem5.org
gem5 is copyrighted software; use the --copyright option for details.

gem5 version 24.1.0.3
gem5 compiled Sep 28 2025 00:02:15
gem5 started Sep 30 2025 09:38:11
gem5 executing on arpit-linux, pid 81315
command line: ../gem5/build/RISCV/gem5.opt --outdir=results/compute_bound_workload/l1_32kB_4way test.py --isa=RISCV --binary=compute_bound_workload --cpu-type=O3 --l1i-size=32kB --l1d-size=32kB --l1i-assoc=4 --l1d-assoc=4 --ROB-entries=192 --issue-width=4 --commit-width=4 --l2-size=256kB --l2-assoc=16 --l1i-replace-policy=LRU --l1d-replace-policy=LRU --l2-replace-policy=LRU --branch-predictor-enable --branch-predictor-type=TournamentBP --mem-dep-pred-enable --l1d-prefetcher-type=StridePrefetcher --l2-prefetcher-type=TaggedPrefetcher

info: Standard input is not a terminal, disabling listeners.
src/sim/simulate.cc:199: info: Entering event queue @ 0.  Starting simulation...
src/sim/syscall_emul.cc:97: warn: ignoring syscall set_robust_list(...)
      (further warnings will be suppressed)
src/sim/syscall_emul.hh:1117: warn: readlink() called on '/proc/self/exe' may yield unexpected results in various settings.
      Returning '/home/arpit/Desktop/iitd/sem_7/COL718/projects/OoO-and-Speculation/compute_bound_workload'
src/sim/mem_state.cc:448: info: Increasing stack size by one page.
src/sim/syscall_emul.cc:86: warn: ignoring syscall mprotect(...)
Starting compute-bound workload...
Compute-bound workload complete. Final result (to prevent optimization): -3.759111
Exiting @ tick 4177109043 because exiting with last active thread context.
Simulation finished for results/compute_bound_workload/l1_32kB_4way.

-------------------------------------------------
 WORKLOAD: compute_bound_workload
 SAVING TO: results/compute_bound_workload/l1_32kB_8way
 PARAMS: --l1i-size=32kB --l1d-size=32kB --l1i-assoc=8 --l1d-assoc=8 --ROB-entries=192 --issue-width=4 --commit-width=4 --l2-size=256kB --l2-assoc=16 --l1i-replace-policy=LRU --l1d-replace-policy=LRU --l2-replace-policy=LRU --branch-predictor-enable --branch-predictor-type=TournamentBP --mem-dep-pred-enable --l1d-prefetcher-type=StridePrefetcher --l2-prefetcher-type=TaggedPrefetcher
-------------------------------------------------
warn: Base 10 memory/cache size 32kB will be cast to base 2 size 32KiB.
warn: Base 10 memory/cache size 32kB will be cast to base 2 size 32KiB.
warn: Base 10 memory/cache size 256kB will be cast to base 2 size 256KiB.
Global frequency set at 1000000000000 ticks per second
src/arch/riscv/isa.cc:279: info: RVV enabled, VLEN = 256 bits, ELEN = 64 bits
src/base/statistics.hh:279: warn: One of the stats is a legacy stat. Legacy stat is a stat that does not belong to any statistics::Group. Legacy stat is deprecated.
src/base/remote_gdb.cc:418: warn: Sockets disabled, not accepting gdb connections
gem5 Simulator System.  https://www.gem5.org
gem5 is copyrighted software; use the --copyright option for details.

gem5 version 24.1.0.3
gem5 compiled Sep 28 2025 00:02:15
gem5 started Sep 30 2025 09:38:35
gem5 executing on arpit-linux, pid 81467
command line: ../gem5/build/RISCV/gem5.opt --outdir=results/compute_bound_workload/l1_32kB_8way test.py --isa=RISCV --binary=compute_bound_workload --cpu-type=O3 --l1i-size=32kB --l1d-size=32kB --l1i-assoc=8 --l1d-assoc=8 --ROB-entries=192 --issue-width=4 --commit-width=4 --l2-size=256kB --l2-assoc=16 --l1i-replace-policy=LRU --l1d-replace-policy=LRU --l2-replace-policy=LRU --branch-predictor-enable --branch-predictor-type=TournamentBP --mem-dep-pred-enable --l1d-prefetcher-type=StridePrefetcher --l2-prefetcher-type=TaggedPrefetcher

info: Standard input is not a terminal, disabling listeners.
src/sim/simulate.cc:199: info: Entering event queue @ 0.  Starting simulation...
src/sim/syscall_emul.cc:97: warn: ignoring syscall set_robust_list(...)
      (further warnings will be suppressed)
src/sim/syscall_emul.hh:1117: warn: readlink() called on '/proc/self/exe' may yield unexpected results in various settings.
      Returning '/home/arpit/Desktop/iitd/sem_7/COL718/projects/OoO-and-Speculation/compute_bound_workload'
src/sim/mem_state.cc:448: info: Increasing stack size by one page.
src/sim/syscall_emul.cc:86: warn: ignoring syscall mprotect(...)
Starting compute-bound workload...
Compute-bound workload complete. Final result (to prevent optimization): -3.759111
Exiting @ tick 4177109043 because exiting with last active thread context.
Simulation finished for results/compute_bound_workload/l1_32kB_8way.

-------------------------------------------------
 WORKLOAD: compute_bound_workload
 SAVING TO: results/compute_bound_workload/l1_64kB_2way
 PARAMS: --l1i-size=64kB --l1d-size=64kB --l1i-assoc=2 --l1d-assoc=2 --ROB-entries=192 --issue-width=4 --commit-width=4 --l2-size=256kB --l2-assoc=16 --l1i-replace-policy=LRU --l1d-replace-policy=LRU --l2-replace-policy=LRU --branch-predictor-enable --branch-predictor-type=TournamentBP --mem-dep-pred-enable --l1d-prefetcher-type=StridePrefetcher --l2-prefetcher-type=TaggedPrefetcher
-------------------------------------------------
warn: Base 10 memory/cache size 64kB will be cast to base 2 size 64KiB.
warn: Base 10 memory/cache size 64kB will be cast to base 2 size 64KiB.
warn: Base 10 memory/cache size 256kB will be cast to base 2 size 256KiB.
Global frequency set at 1000000000000 ticks per second
src/arch/riscv/isa.cc:279: info: RVV enabled, VLEN = 256 bits, ELEN = 64 bits
src/base/statistics.hh:279: warn: One of the stats is a legacy stat. Legacy stat is a stat that does not belong to any statistics::Group. Legacy stat is deprecated.
src/base/remote_gdb.cc:418: warn: Sockets disabled, not accepting gdb connections
gem5 Simulator System.  https://www.gem5.org
gem5 is copyrighted software; use the --copyright option for details.

gem5 version 24.1.0.3
gem5 compiled Sep 28 2025 00:02:15
gem5 started Sep 30 2025 09:38:58
gem5 executing on arpit-linux, pid 81787
command line: ../gem5/build/RISCV/gem5.opt --outdir=results/compute_bound_workload/l1_64kB_2way test.py --isa=RISCV --binary=compute_bound_workload --cpu-type=O3 --l1i-size=64kB --l1d-size=64kB --l1i-assoc=2 --l1d-assoc=2 --ROB-entries=192 --issue-width=4 --commit-width=4 --l2-size=256kB --l2-assoc=16 --l1i-replace-policy=LRU --l1d-replace-policy=LRU --l2-replace-policy=LRU --branch-predictor-enable --branch-predictor-type=TournamentBP --mem-dep-pred-enable --l1d-prefetcher-type=StridePrefetcher --l2-prefetcher-type=TaggedPrefetcher

info: Standard input is not a terminal, disabling listeners.
src/sim/simulate.cc:199: info: Entering event queue @ 0.  Starting simulation...
src/sim/syscall_emul.cc:97: warn: ignoring syscall set_robust_list(...)
      (further warnings will be suppressed)
src/sim/syscall_emul.hh:1117: warn: readlink() called on '/proc/self/exe' may yield unexpected results in various settings.
      Returning '/home/arpit/Desktop/iitd/sem_7/COL718/projects/OoO-and-Speculation/compute_bound_workload'
src/sim/mem_state.cc:448: info: Increasing stack size by one page.
src/sim/syscall_emul.cc:86: warn: ignoring syscall mprotect(...)
Starting compute-bound workload...
Compute-bound workload complete. Final result (to prevent optimization): -3.759111
Exiting @ tick 4177118700 because exiting with last active thread context.
Simulation finished for results/compute_bound_workload/l1_64kB_2way.

-------------------------------------------------
 WORKLOAD: compute_bound_workload
 SAVING TO: results/compute_bound_workload/l1_64kB_4way
 PARAMS: --l1i-size=64kB --l1d-size=64kB --l1i-assoc=4 --l1d-assoc=4 --ROB-entries=192 --issue-width=4 --commit-width=4 --l2-size=256kB --l2-assoc=16 --l1i-replace-policy=LRU --l1d-replace-policy=LRU --l2-replace-policy=LRU --branch-predictor-enable --branch-predictor-type=TournamentBP --mem-dep-pred-enable --l1d-prefetcher-type=StridePrefetcher --l2-prefetcher-type=TaggedPrefetcher
-------------------------------------------------
warn: Base 10 memory/cache size 64kB will be cast to base 2 size 64KiB.
warn: Base 10 memory/cache size 64kB will be cast to base 2 size 64KiB.
warn: Base 10 memory/cache size 256kB will be cast to base 2 size 256KiB.
Global frequency set at 1000000000000 ticks per second
src/arch/riscv/isa.cc:279: info: RVV enabled, VLEN = 256 bits, ELEN = 64 bits
src/base/statistics.hh:279: warn: One of the stats is a legacy stat. Legacy stat is a stat that does not belong to any statistics::Group. Legacy stat is deprecated.
src/base/remote_gdb.cc:418: warn: Sockets disabled, not accepting gdb connections
gem5 Simulator System.  https://www.gem5.org
gem5 is copyrighted software; use the --copyright option for details.

gem5 version 24.1.0.3
gem5 compiled Sep 28 2025 00:02:15
gem5 started Sep 30 2025 09:39:21
gem5 executing on arpit-linux, pid 81943
command line: ../gem5/build/RISCV/gem5.opt --outdir=results/compute_bound_workload/l1_64kB_4way test.py --isa=RISCV --binary=compute_bound_workload --cpu-type=O3 --l1i-size=64kB --l1d-size=64kB --l1i-assoc=4 --l1d-assoc=4 --ROB-entries=192 --issue-width=4 --commit-width=4 --l2-size=256kB --l2-assoc=16 --l1i-replace-policy=LRU --l1d-replace-policy=LRU --l2-replace-policy=LRU --branch-predictor-enable --branch-predictor-type=TournamentBP --mem-dep-pred-enable --l1d-prefetcher-type=StridePrefetcher --l2-prefetcher-type=TaggedPrefetcher

info: Standard input is not a terminal, disabling listeners.
src/sim/simulate.cc:199: info: Entering event queue @ 0.  Starting simulation...
src/sim/syscall_emul.cc:97: warn: ignoring syscall set_robust_list(...)
      (further warnings will be suppressed)
src/sim/syscall_emul.hh:1117: warn: readlink() called on '/proc/self/exe' may yield unexpected results in various settings.
      Returning '/home/arpit/Desktop/iitd/sem_7/COL718/projects/OoO-and-Speculation/compute_bound_workload'
src/sim/mem_state.cc:448: info: Increasing stack size by one page.
src/sim/syscall_emul.cc:86: warn: ignoring syscall mprotect(...)
Starting compute-bound workload...
Compute-bound workload complete. Final result (to prevent optimization): -3.759111
Exiting @ tick 4176892593 because exiting with last active thread context.
Simulation finished for results/compute_bound_workload/l1_64kB_4way.

-------------------------------------------------
 WORKLOAD: compute_bound_workload
 SAVING TO: results/compute_bound_workload/l1_64kB_8way
 PARAMS: --l1i-size=64kB --l1d-size=64kB --l1i-assoc=8 --l1d-assoc=8 --ROB-entries=192 --issue-width=4 --commit-width=4 --l2-size=256kB --l2-assoc=16 --l1i-replace-policy=LRU --l1d-replace-policy=LRU --l2-replace-policy=LRU --branch-predictor-enable --branch-predictor-type=TournamentBP --mem-dep-pred-enable --l1d-prefetcher-type=StridePrefetcher --l2-prefetcher-type=TaggedPrefetcher
-------------------------------------------------
warn: Base 10 memory/cache size 64kB will be cast to base 2 size 64KiB.
warn: Base 10 memory/cache size 64kB will be cast to base 2 size 64KiB.
warn: Base 10 memory/cache size 256kB will be cast to base 2 size 256KiB.
Global frequency set at 1000000000000 ticks per second
src/arch/riscv/isa.cc:279: info: RVV enabled, VLEN = 256 bits, ELEN = 64 bits
src/base/statistics.hh:279: warn: One of the stats is a legacy stat. Legacy stat is a stat that does not belong to any statistics::Group. Legacy stat is deprecated.
src/base/remote_gdb.cc:418: warn: Sockets disabled, not accepting gdb connections
gem5 Simulator System.  https://www.gem5.org
gem5 is copyrighted software; use the --copyright option for details.

gem5 version 24.1.0.3
gem5 compiled Sep 28 2025 00:02:15
gem5 started Sep 30 2025 09:39:45
gem5 executing on arpit-linux, pid 82155
command line: ../gem5/build/RISCV/gem5.opt --outdir=results/compute_bound_workload/l1_64kB_8way test.py --isa=RISCV --binary=compute_bound_workload --cpu-type=O3 --l1i-size=64kB --l1d-size=64kB --l1i-assoc=8 --l1d-assoc=8 --ROB-entries=192 --issue-width=4 --commit-width=4 --l2-size=256kB --l2-assoc=16 --l1i-replace-policy=LRU --l1d-replace-policy=LRU --l2-replace-policy=LRU --branch-predictor-enable --branch-predictor-type=TournamentBP --mem-dep-pred-enable --l1d-prefetcher-type=StridePrefetcher --l2-prefetcher-type=TaggedPrefetcher

info: Standard input is not a terminal, disabling listeners.
src/sim/simulate.cc:199: info: Entering event queue @ 0.  Starting simulation...
src/sim/syscall_emul.cc:97: warn: ignoring syscall set_robust_list(...)
      (further warnings will be suppressed)
src/sim/syscall_emul.hh:1117: warn: readlink() called on '/proc/self/exe' may yield unexpected results in various settings.
      Returning '/home/arpit/Desktop/iitd/sem_7/COL718/projects/OoO-and-Speculation/compute_bound_workload'
src/sim/mem_state.cc:448: info: Increasing stack size by one page.
src/sim/syscall_emul.cc:86: warn: ignoring syscall mprotect(...)
Starting compute-bound workload...
Compute-bound workload complete. Final result (to prevent optimization): -3.759111
Exiting @ tick 4176916236 because exiting with last active thread context.
Simulation finished for results/compute_bound_workload/l1_64kB_8way.

-------------------------------------------------
 WORKLOAD: compute_bound_workload
 SAVING TO: results/compute_bound_workload/l2_128kB_8way
 PARAMS: --l2-size=128kB --l2-assoc=8 --ROB-entries=192 --issue-width=4 --commit-width=4 --l1i-size=32kB --l1i-assoc=8 --l1d-size=32kB --l1d-assoc=8 --l1i-replace-policy=LRU --l1d-replace-policy=LRU --l2-replace-policy=LRU --branch-predictor-enable --branch-predictor-type=TournamentBP --mem-dep-pred-enable --l1d-prefetcher-type=StridePrefetcher --l2-prefetcher-type=TaggedPrefetcher
-------------------------------------------------
warn: Base 10 memory/cache size 32kB will be cast to base 2 size 32KiB.
warn: Base 10 memory/cache size 32kB will be cast to base 2 size 32KiB.
warn: Base 10 memory/cache size 128kB will be cast to base 2 size 128KiB.
Global frequency set at 1000000000000 ticks per second
src/arch/riscv/isa.cc:279: info: RVV enabled, VLEN = 256 bits, ELEN = 64 bits
src/base/statistics.hh:279: warn: One of the stats is a legacy stat. Legacy stat is a stat that does not belong to any statistics::Group. Legacy stat is deprecated.
src/base/remote_gdb.cc:418: warn: Sockets disabled, not accepting gdb connections
gem5 Simulator System.  https://www.gem5.org
gem5 is copyrighted software; use the --copyright option for details.

gem5 version 24.1.0.3
gem5 compiled Sep 28 2025 00:02:15
gem5 started Sep 30 2025 09:40:08
gem5 executing on arpit-linux, pid 82309
command line: ../gem5/build/RISCV/gem5.opt --outdir=results/compute_bound_workload/l2_128kB_8way test.py --isa=RISCV --binary=compute_bound_workload --cpu-type=O3 --l2-size=128kB --l2-assoc=8 --ROB-entries=192 --issue-width=4 --commit-width=4 --l1i-size=32kB --l1i-assoc=8 --l1d-size=32kB --l1d-assoc=8 --l1i-replace-policy=LRU --l1d-replace-policy=LRU --l2-replace-policy=LRU --branch-predictor-enable --branch-predictor-type=TournamentBP --mem-dep-pred-enable --l1d-prefetcher-type=StridePrefetcher --l2-prefetcher-type=TaggedPrefetcher

info: Standard input is not a terminal, disabling listeners.
src/sim/simulate.cc:199: info: Entering event queue @ 0.  Starting simulation...
src/sim/syscall_emul.cc:97: warn: ignoring syscall set_robust_list(...)
      (further warnings will be suppressed)
src/sim/syscall_emul.hh:1117: warn: readlink() called on '/proc/self/exe' may yield unexpected results in various settings.
      Returning '/home/arpit/Desktop/iitd/sem_7/COL718/projects/OoO-and-Speculation/compute_bound_workload'
src/sim/mem_state.cc:448: info: Increasing stack size by one page.
src/sim/syscall_emul.cc:86: warn: ignoring syscall mprotect(...)
Starting compute-bound workload...
Compute-bound workload complete. Final result (to prevent optimization): -3.759111
Exiting @ tick 4177240578 because exiting with last active thread context.
Simulation finished for results/compute_bound_workload/l2_128kB_8way.

-------------------------------------------------
 WORKLOAD: compute_bound_workload
 SAVING TO: results/compute_bound_workload/l2_128kB_16way
 PARAMS: --l2-size=128kB --l2-assoc=16 --ROB-entries=192 --issue-width=4 --commit-width=4 --l1i-size=32kB --l1i-assoc=8 --l1d-size=32kB --l1d-assoc=8 --l1i-replace-policy=LRU --l1d-replace-policy=LRU --l2-replace-policy=LRU --branch-predictor-enable --branch-predictor-type=TournamentBP --mem-dep-pred-enable --l1d-prefetcher-type=StridePrefetcher --l2-prefetcher-type=TaggedPrefetcher
-------------------------------------------------
warn: Base 10 memory/cache size 32kB will be cast to base 2 size 32KiB.
warn: Base 10 memory/cache size 32kB will be cast to base 2 size 32KiB.
warn: Base 10 memory/cache size 128kB will be cast to base 2 size 128KiB.
Global frequency set at 1000000000000 ticks per second
src/arch/riscv/isa.cc:279: info: RVV enabled, VLEN = 256 bits, ELEN = 64 bits
src/base/statistics.hh:279: warn: One of the stats is a legacy stat. Legacy stat is a stat that does not belong to any statistics::Group. Legacy stat is deprecated.
src/base/remote_gdb.cc:418: warn: Sockets disabled, not accepting gdb connections
gem5 Simulator System.  https://www.gem5.org
gem5 is copyrighted software; use the --copyright option for details.

gem5 version 24.1.0.3
gem5 compiled Sep 28 2025 00:02:15
gem5 started Sep 30 2025 09:40:31
gem5 executing on arpit-linux, pid 82458
command line: ../gem5/build/RISCV/gem5.opt --outdir=results/compute_bound_workload/l2_128kB_16way test.py --isa=RISCV --binary=compute_bound_workload --cpu-type=O3 --l2-size=128kB --l2-assoc=16 --ROB-entries=192 --issue-width=4 --commit-width=4 --l1i-size=32kB --l1i-assoc=8 --l1d-size=32kB --l1d-assoc=8 --l1i-replace-policy=LRU --l1d-replace-policy=LRU --l2-replace-policy=LRU --branch-predictor-enable --branch-predictor-type=TournamentBP --mem-dep-pred-enable --l1d-prefetcher-type=StridePrefetcher --l2-prefetcher-type=TaggedPrefetcher

info: Standard input is not a terminal, disabling listeners.
src/sim/simulate.cc:199: info: Entering event queue @ 0.  Starting simulation...
src/sim/syscall_emul.cc:97: warn: ignoring syscall set_robust_list(...)
      (further warnings will be suppressed)
src/sim/syscall_emul.hh:1117: warn: readlink() called on '/proc/self/exe' may yield unexpected results in various settings.
      Returning '/home/arpit/Desktop/iitd/sem_7/COL718/projects/OoO-and-Speculation/compute_bound_workload'
src/sim/mem_state.cc:448: info: Increasing stack size by one page.
src/sim/syscall_emul.cc:86: warn: ignoring syscall mprotect(...)
Starting compute-bound workload...
Compute-bound workload complete. Final result (to prevent optimization): -3.759111
Exiting @ tick 4177149336 because exiting with last active thread context.
Simulation finished for results/compute_bound_workload/l2_128kB_16way.

-------------------------------------------------
 WORKLOAD: compute_bound_workload
 SAVING TO: results/compute_bound_workload/l2_256kB_8way
 PARAMS: --l2-size=256kB --l2-assoc=8 --ROB-entries=192 --issue-width=4 --commit-width=4 --l1i-size=32kB --l1i-assoc=8 --l1d-size=32kB --l1d-assoc=8 --l1i-replace-policy=LRU --l1d-replace-policy=LRU --l2-replace-policy=LRU --branch-predictor-enable --branch-predictor-type=TournamentBP --mem-dep-pred-enable --l1d-prefetcher-type=StridePrefetcher --l2-prefetcher-type=TaggedPrefetcher
-------------------------------------------------
warn: Base 10 memory/cache size 32kB will be cast to base 2 size 32KiB.
warn: Base 10 memory/cache size 32kB will be cast to base 2 size 32KiB.
warn: Base 10 memory/cache size 256kB will be cast to base 2 size 256KiB.
Global frequency set at 1000000000000 ticks per second
src/arch/riscv/isa.cc:279: info: RVV enabled, VLEN = 256 bits, ELEN = 64 bits
src/base/statistics.hh:279: warn: One of the stats is a legacy stat. Legacy stat is a stat that does not belong to any statistics::Group. Legacy stat is deprecated.
src/base/remote_gdb.cc:418: warn: Sockets disabled, not accepting gdb connections
gem5 Simulator System.  https://www.gem5.org
gem5 is copyrighted software; use the --copyright option for details.

gem5 version 24.1.0.3
gem5 compiled Sep 28 2025 00:02:15
gem5 started Sep 30 2025 09:40:55
gem5 executing on arpit-linux, pid 82666
command line: ../gem5/build/RISCV/gem5.opt --outdir=results/compute_bound_workload/l2_256kB_8way test.py --isa=RISCV --binary=compute_bound_workload --cpu-type=O3 --l2-size=256kB --l2-assoc=8 --ROB-entries=192 --issue-width=4 --commit-width=4 --l1i-size=32kB --l1i-assoc=8 --l1d-size=32kB --l1d-assoc=8 --l1i-replace-policy=LRU --l1d-replace-policy=LRU --l2-replace-policy=LRU --branch-predictor-enable --branch-predictor-type=TournamentBP --mem-dep-pred-enable --l1d-prefetcher-type=StridePrefetcher --l2-prefetcher-type=TaggedPrefetcher

info: Standard input is not a terminal, disabling listeners.
src/sim/simulate.cc:199: info: Entering event queue @ 0.  Starting simulation...
src/sim/syscall_emul.cc:97: warn: ignoring syscall set_robust_list(...)
      (further warnings will be suppressed)
src/sim/syscall_emul.hh:1117: warn: readlink() called on '/proc/self/exe' may yield unexpected results in various settings.
      Returning '/home/arpit/Desktop/iitd/sem_7/COL718/projects/OoO-and-Speculation/compute_bound_workload'
src/sim/mem_state.cc:448: info: Increasing stack size by one page.
src/sim/syscall_emul.cc:86: warn: ignoring syscall mprotect(...)
Starting compute-bound workload...
Compute-bound workload complete. Final result (to prevent optimization): -3.759111
Exiting @ tick 4177109043 because exiting with last active thread context.
Simulation finished for results/compute_bound_workload/l2_256kB_8way.

-------------------------------------------------
 WORKLOAD: compute_bound_workload
 SAVING TO: results/compute_bound_workload/l2_256kB_16way
 PARAMS: --l2-size=256kB --l2-assoc=16 --ROB-entries=192 --issue-width=4 --commit-width=4 --l1i-size=32kB --l1i-assoc=8 --l1d-size=32kB --l1d-assoc=8 --l1i-replace-policy=LRU --l1d-replace-policy=LRU --l2-replace-policy=LRU --branch-predictor-enable --branch-predictor-type=TournamentBP --mem-dep-pred-enable --l1d-prefetcher-type=StridePrefetcher --l2-prefetcher-type=TaggedPrefetcher
-------------------------------------------------
warn: Base 10 memory/cache size 32kB will be cast to base 2 size 32KiB.
warn: Base 10 memory/cache size 32kB will be cast to base 2 size 32KiB.
warn: Base 10 memory/cache size 256kB will be cast to base 2 size 256KiB.
Global frequency set at 1000000000000 ticks per second
src/arch/riscv/isa.cc:279: info: RVV enabled, VLEN = 256 bits, ELEN = 64 bits
src/base/statistics.hh:279: warn: One of the stats is a legacy stat. Legacy stat is a stat that does not belong to any statistics::Group. Legacy stat is deprecated.
src/base/remote_gdb.cc:418: warn: Sockets disabled, not accepting gdb connections
gem5 Simulator System.  https://www.gem5.org
gem5 is copyrighted software; use the --copyright option for details.

gem5 version 24.1.0.3
gem5 compiled Sep 28 2025 00:02:15
gem5 started Sep 30 2025 09:41:18
gem5 executing on arpit-linux, pid 82820
command line: ../gem5/build/RISCV/gem5.opt --outdir=results/compute_bound_workload/l2_256kB_16way test.py --isa=RISCV --binary=compute_bound_workload --cpu-type=O3 --l2-size=256kB --l2-assoc=16 --ROB-entries=192 --issue-width=4 --commit-width=4 --l1i-size=32kB --l1i-assoc=8 --l1d-size=32kB --l1d-assoc=8 --l1i-replace-policy=LRU --l1d-replace-policy=LRU --l2-replace-policy=LRU --branch-predictor-enable --branch-predictor-type=TournamentBP --mem-dep-pred-enable --l1d-prefetcher-type=StridePrefetcher --l2-prefetcher-type=TaggedPrefetcher

info: Standard input is not a terminal, disabling listeners.
src/sim/simulate.cc:199: info: Entering event queue @ 0.  Starting simulation...
src/sim/syscall_emul.cc:97: warn: ignoring syscall set_robust_list(...)
      (further warnings will be suppressed)
src/sim/syscall_emul.hh:1117: warn: readlink() called on '/proc/self/exe' may yield unexpected results in various settings.
      Returning '/home/arpit/Desktop/iitd/sem_7/COL718/projects/OoO-and-Speculation/compute_bound_workload'
src/sim/mem_state.cc:448: info: Increasing stack size by one page.
src/sim/syscall_emul.cc:86: warn: ignoring syscall mprotect(...)
Starting compute-bound workload...
Compute-bound workload complete. Final result (to prevent optimization): -3.759111
Exiting @ tick 4177109043 because exiting with last active thread context.
Simulation finished for results/compute_bound_workload/l2_256kB_16way.

-------------------------------------------------
 WORKLOAD: compute_bound_workload
 SAVING TO: results/compute_bound_workload/l2_512kB_8way
 PARAMS: --l2-size=512kB --l2-assoc=8 --ROB-entries=192 --issue-width=4 --commit-width=4 --l1i-size=32kB --l1i-assoc=8 --l1d-size=32kB --l1d-assoc=8 --l1i-replace-policy=LRU --l1d-replace-policy=LRU --l2-replace-policy=LRU --branch-predictor-enable --branch-predictor-type=TournamentBP --mem-dep-pred-enable --l1d-prefetcher-type=StridePrefetcher --l2-prefetcher-type=TaggedPrefetcher
-------------------------------------------------
warn: Base 10 memory/cache size 32kB will be cast to base 2 size 32KiB.
warn: Base 10 memory/cache size 32kB will be cast to base 2 size 32KiB.
warn: Base 10 memory/cache size 512kB will be cast to base 2 size 512KiB.
Global frequency set at 1000000000000 ticks per second
src/arch/riscv/isa.cc:279: info: RVV enabled, VLEN = 256 bits, ELEN = 64 bits
src/base/statistics.hh:279: warn: One of the stats is a legacy stat. Legacy stat is a stat that does not belong to any statistics::Group. Legacy stat is deprecated.
src/base/remote_gdb.cc:418: warn: Sockets disabled, not accepting gdb connections
gem5 Simulator System.  https://www.gem5.org
gem5 is copyrighted software; use the --copyright option for details.

gem5 version 24.1.0.3
gem5 compiled Sep 28 2025 00:02:15
gem5 started Sep 30 2025 09:41:41
gem5 executing on arpit-linux, pid 82970
command line: ../gem5/build/RISCV/gem5.opt --outdir=results/compute_bound_workload/l2_512kB_8way test.py --isa=RISCV --binary=compute_bound_workload --cpu-type=O3 --l2-size=512kB --l2-assoc=8 --ROB-entries=192 --issue-width=4 --commit-width=4 --l1i-size=32kB --l1i-assoc=8 --l1d-size=32kB --l1d-assoc=8 --l1i-replace-policy=LRU --l1d-replace-policy=LRU --l2-replace-policy=LRU --branch-predictor-enable --branch-predictor-type=TournamentBP --mem-dep-pred-enable --l1d-prefetcher-type=StridePrefetcher --l2-prefetcher-type=TaggedPrefetcher

info: Standard input is not a terminal, disabling listeners.
src/sim/simulate.cc:199: info: Entering event queue @ 0.  Starting simulation...
src/sim/syscall_emul.cc:97: warn: ignoring syscall set_robust_list(...)
      (further warnings will be suppressed)
src/sim/syscall_emul.hh:1117: warn: readlink() called on '/proc/self/exe' may yield unexpected results in various settings.
      Returning '/home/arpit/Desktop/iitd/sem_7/COL718/projects/OoO-and-Speculation/compute_bound_workload'
src/sim/mem_state.cc:448: info: Increasing stack size by one page.
src/sim/syscall_emul.cc:86: warn: ignoring syscall mprotect(...)
Starting compute-bound workload...
Compute-bound workload complete. Final result (to prevent optimization): -3.759111
Exiting @ tick 4177109043 because exiting with last active thread context.
Simulation finished for results/compute_bound_workload/l2_512kB_8way.

-------------------------------------------------
 WORKLOAD: compute_bound_workload
 SAVING TO: results/compute_bound_workload/l2_512kB_16way
 PARAMS: --l2-size=512kB --l2-assoc=16 --ROB-entries=192 --issue-width=4 --commit-width=4 --l1i-size=32kB --l1i-assoc=8 --l1d-size=32kB --l1d-assoc=8 --l1i-replace-policy=LRU --l1d-replace-policy=LRU --l2-replace-policy=LRU --branch-predictor-enable --branch-predictor-type=TournamentBP --mem-dep-pred-enable --l1d-prefetcher-type=StridePrefetcher --l2-prefetcher-type=TaggedPrefetcher
-------------------------------------------------
warn: Base 10 memory/cache size 32kB will be cast to base 2 size 32KiB.
warn: Base 10 memory/cache size 32kB will be cast to base 2 size 32KiB.
warn: Base 10 memory/cache size 512kB will be cast to base 2 size 512KiB.
Global frequency set at 1000000000000 ticks per second
src/arch/riscv/isa.cc:279: info: RVV enabled, VLEN = 256 bits, ELEN = 64 bits
src/base/statistics.hh:279: warn: One of the stats is a legacy stat. Legacy stat is a stat that does not belong to any statistics::Group. Legacy stat is deprecated.
src/base/remote_gdb.cc:418: warn: Sockets disabled, not accepting gdb connections
gem5 Simulator System.  https://www.gem5.org
gem5 is copyrighted software; use the --copyright option for details.

gem5 version 24.1.0.3
gem5 compiled Sep 28 2025 00:02:15
gem5 started Sep 30 2025 09:42:04
gem5 executing on arpit-linux, pid 83180
command line: ../gem5/build/RISCV/gem5.opt --outdir=results/compute_bound_workload/l2_512kB_16way test.py --isa=RISCV --binary=compute_bound_workload --cpu-type=O3 --l2-size=512kB --l2-assoc=16 --ROB-entries=192 --issue-width=4 --commit-width=4 --l1i-size=32kB --l1i-assoc=8 --l1d-size=32kB --l1d-assoc=8 --l1i-replace-policy=LRU --l1d-replace-policy=LRU --l2-replace-policy=LRU --branch-predictor-enable --branch-predictor-type=TournamentBP --mem-dep-pred-enable --l1d-prefetcher-type=StridePrefetcher --l2-prefetcher-type=TaggedPrefetcher

info: Standard input is not a terminal, disabling listeners.
src/sim/simulate.cc:199: info: Entering event queue @ 0.  Starting simulation...
src/sim/syscall_emul.cc:97: warn: ignoring syscall set_robust_list(...)
      (further warnings will be suppressed)
src/sim/syscall_emul.hh:1117: warn: readlink() called on '/proc/self/exe' may yield unexpected results in various settings.
      Returning '/home/arpit/Desktop/iitd/sem_7/COL718/projects/OoO-and-Speculation/compute_bound_workload'
src/sim/mem_state.cc:448: info: Increasing stack size by one page.
src/sim/syscall_emul.cc:86: warn: ignoring syscall mprotect(...)
Starting compute-bound workload...
Compute-bound workload complete. Final result (to prevent optimization): -3.759111
Exiting @ tick 4177109043 because exiting with last active thread context.
Simulation finished for results/compute_bound_workload/l2_512kB_16way.

-------------------------------------------------
 WORKLOAD: compute_bound_workload
 SAVING TO: results/compute_bound_workload/l2_1MB_8way
 PARAMS: --l2-size=1MB --l2-assoc=8 --ROB-entries=192 --issue-width=4 --commit-width=4 --l1i-size=32kB --l1i-assoc=8 --l1d-size=32kB --l1d-assoc=8 --l1i-replace-policy=LRU --l1d-replace-policy=LRU --l2-replace-policy=LRU --branch-predictor-enable --branch-predictor-type=TournamentBP --mem-dep-pred-enable --l1d-prefetcher-type=StridePrefetcher --l2-prefetcher-type=TaggedPrefetcher
-------------------------------------------------
warn: Base 10 memory/cache size 32kB will be cast to base 2 size 32KiB.
warn: Base 10 memory/cache size 32kB will be cast to base 2 size 32KiB.
warn: Base 10 memory/cache size 1MB will be cast to base 2 size 1MiB.
Global frequency set at 1000000000000 ticks per second
src/arch/riscv/isa.cc:279: info: RVV enabled, VLEN = 256 bits, ELEN = 64 bits
src/base/statistics.hh:279: warn: One of the stats is a legacy stat. Legacy stat is a stat that does not belong to any statistics::Group. Legacy stat is deprecated.
src/base/remote_gdb.cc:418: warn: Sockets disabled, not accepting gdb connections
gem5 Simulator System.  https://www.gem5.org
gem5 is copyrighted software; use the --copyright option for details.

gem5 version 24.1.0.3
gem5 compiled Sep 28 2025 00:02:15
gem5 started Sep 30 2025 09:42:28
gem5 executing on arpit-linux, pid 83326
command line: ../gem5/build/RISCV/gem5.opt --outdir=results/compute_bound_workload/l2_1MB_8way test.py --isa=RISCV --binary=compute_bound_workload --cpu-type=O3 --l2-size=1MB --l2-assoc=8 --ROB-entries=192 --issue-width=4 --commit-width=4 --l1i-size=32kB --l1i-assoc=8 --l1d-size=32kB --l1d-assoc=8 --l1i-replace-policy=LRU --l1d-replace-policy=LRU --l2-replace-policy=LRU --branch-predictor-enable --branch-predictor-type=TournamentBP --mem-dep-pred-enable --l1d-prefetcher-type=StridePrefetcher --l2-prefetcher-type=TaggedPrefetcher

info: Standard input is not a terminal, disabling listeners.
src/sim/simulate.cc:199: info: Entering event queue @ 0.  Starting simulation...
src/sim/syscall_emul.cc:97: warn: ignoring syscall set_robust_list(...)
      (further warnings will be suppressed)
src/sim/syscall_emul.hh:1117: warn: readlink() called on '/proc/self/exe' may yield unexpected results in various settings.
      Returning '/home/arpit/Desktop/iitd/sem_7/COL718/projects/OoO-and-Speculation/compute_bound_workload'
src/sim/mem_state.cc:448: info: Increasing stack size by one page.
src/sim/syscall_emul.cc:86: warn: ignoring syscall mprotect(...)
Starting compute-bound workload...
Compute-bound workload complete. Final result (to prevent optimization): -3.759111
Exiting @ tick 4177109043 because exiting with last active thread context.
Simulation finished for results/compute_bound_workload/l2_1MB_8way.

-------------------------------------------------
 WORKLOAD: compute_bound_workload
 SAVING TO: results/compute_bound_workload/l2_1MB_16way
 PARAMS: --l2-size=1MB --l2-assoc=16 --ROB-entries=192 --issue-width=4 --commit-width=4 --l1i-size=32kB --l1i-assoc=8 --l1d-size=32kB --l1d-assoc=8 --l1i-replace-policy=LRU --l1d-replace-policy=LRU --l2-replace-policy=LRU --branch-predictor-enable --branch-predictor-type=TournamentBP --mem-dep-pred-enable --l1d-prefetcher-type=StridePrefetcher --l2-prefetcher-type=TaggedPrefetcher
-------------------------------------------------
warn: Base 10 memory/cache size 32kB will be cast to base 2 size 32KiB.
warn: Base 10 memory/cache size 32kB will be cast to base 2 size 32KiB.
warn: Base 10 memory/cache size 1MB will be cast to base 2 size 1MiB.
Global frequency set at 1000000000000 ticks per second
src/arch/riscv/isa.cc:279: info: RVV enabled, VLEN = 256 bits, ELEN = 64 bits
src/base/statistics.hh:279: warn: One of the stats is a legacy stat. Legacy stat is a stat that does not belong to any statistics::Group. Legacy stat is deprecated.
src/base/remote_gdb.cc:418: warn: Sockets disabled, not accepting gdb connections
gem5 Simulator System.  https://www.gem5.org
gem5 is copyrighted software; use the --copyright option for details.

gem5 version 24.1.0.3
gem5 compiled Sep 28 2025 00:02:15
gem5 started Sep 30 2025 09:42:51
gem5 executing on arpit-linux, pid 83530
command line: ../gem5/build/RISCV/gem5.opt --outdir=results/compute_bound_workload/l2_1MB_16way test.py --isa=RISCV --binary=compute_bound_workload --cpu-type=O3 --l2-size=1MB --l2-assoc=16 --ROB-entries=192 --issue-width=4 --commit-width=4 --l1i-size=32kB --l1i-assoc=8 --l1d-size=32kB --l1d-assoc=8 --l1i-replace-policy=LRU --l1d-replace-policy=LRU --l2-replace-policy=LRU --branch-predictor-enable --branch-predictor-type=TournamentBP --mem-dep-pred-enable --l1d-prefetcher-type=StridePrefetcher --l2-prefetcher-type=TaggedPrefetcher

info: Standard input is not a terminal, disabling listeners.
src/sim/simulate.cc:199: info: Entering event queue @ 0.  Starting simulation...
src/sim/syscall_emul.cc:97: warn: ignoring syscall set_robust_list(...)
      (further warnings will be suppressed)
src/sim/syscall_emul.hh:1117: warn: readlink() called on '/proc/self/exe' may yield unexpected results in various settings.
      Returning '/home/arpit/Desktop/iitd/sem_7/COL718/projects/OoO-and-Speculation/compute_bound_workload'
src/sim/mem_state.cc:448: info: Increasing stack size by one page.
src/sim/syscall_emul.cc:86: warn: ignoring syscall mprotect(...)
Starting compute-bound workload...
Compute-bound workload complete. Final result (to prevent optimization): -3.759111
Exiting @ tick 4177109043 because exiting with last active thread context.
Simulation finished for results/compute_bound_workload/l2_1MB_16way.

-------------------------------------------------
 WORKLOAD: compute_bound_workload
 SAVING TO: results/compute_bound_workload/policy_LRU
 PARAMS: --l1i-replace-policy=LRU --l1d-replace-policy=LRU --l2-replace-policy=LRU --ROB-entries=192 --issue-width=4 --commit-width=4 --l1i-size=32kB --l1i-assoc=8 --l1d-size=32kB --l1d-assoc=8 --l2-size=256kB --l2-assoc=16 --branch-predictor-enable --branch-predictor-type=TournamentBP --mem-dep-pred-enable --l1d-prefetcher-type=StridePrefetcher --l2-prefetcher-type=TaggedPrefetcher
-------------------------------------------------
warn: Base 10 memory/cache size 32kB will be cast to base 2 size 32KiB.
warn: Base 10 memory/cache size 32kB will be cast to base 2 size 32KiB.
warn: Base 10 memory/cache size 256kB will be cast to base 2 size 256KiB.
Global frequency set at 1000000000000 ticks per second
src/arch/riscv/isa.cc:279: info: RVV enabled, VLEN = 256 bits, ELEN = 64 bits
src/base/statistics.hh:279: warn: One of the stats is a legacy stat. Legacy stat is a stat that does not belong to any statistics::Group. Legacy stat is deprecated.
src/base/remote_gdb.cc:418: warn: Sockets disabled, not accepting gdb connections
gem5 Simulator System.  https://www.gem5.org
gem5 is copyrighted software; use the --copyright option for details.

gem5 version 24.1.0.3
gem5 compiled Sep 28 2025 00:02:15
gem5 started Sep 30 2025 09:43:14
gem5 executing on arpit-linux, pid 83675
command line: ../gem5/build/RISCV/gem5.opt --outdir=results/compute_bound_workload/policy_LRU test.py --isa=RISCV --binary=compute_bound_workload --cpu-type=O3 --l1i-replace-policy=LRU --l1d-replace-policy=LRU --l2-replace-policy=LRU --ROB-entries=192 --issue-width=4 --commit-width=4 --l1i-size=32kB --l1i-assoc=8 --l1d-size=32kB --l1d-assoc=8 --l2-size=256kB --l2-assoc=16 --branch-predictor-enable --branch-predictor-type=TournamentBP --mem-dep-pred-enable --l1d-prefetcher-type=StridePrefetcher --l2-prefetcher-type=TaggedPrefetcher

info: Standard input is not a terminal, disabling listeners.
src/sim/simulate.cc:199: info: Entering event queue @ 0.  Starting simulation...
src/sim/syscall_emul.cc:97: warn: ignoring syscall set_robust_list(...)
      (further warnings will be suppressed)
src/sim/syscall_emul.hh:1117: warn: readlink() called on '/proc/self/exe' may yield unexpected results in various settings.
      Returning '/home/arpit/Desktop/iitd/sem_7/COL718/projects/OoO-and-Speculation/compute_bound_workload'
src/sim/mem_state.cc:448: info: Increasing stack size by one page.
src/sim/syscall_emul.cc:86: warn: ignoring syscall mprotect(...)
Starting compute-bound workload...
Compute-bound workload complete. Final result (to prevent optimization): -3.759111
Exiting @ tick 4177109043 because exiting with last active thread context.
Simulation finished for results/compute_bound_workload/policy_LRU.

-------------------------------------------------
 WORKLOAD: compute_bound_workload
 SAVING TO: results/compute_bound_workload/policy_Random
 PARAMS: --l1i-replace-policy=Random --l1d-replace-policy=Random --l2-replace-policy=Random --ROB-entries=192 --issue-width=4 --commit-width=4 --l1i-size=32kB --l1i-assoc=8 --l1d-size=32kB --l1d-assoc=8 --l2-size=256kB --l2-assoc=16 --branch-predictor-enable --branch-predictor-type=TournamentBP --mem-dep-pred-enable --l1d-prefetcher-type=StridePrefetcher --l2-prefetcher-type=TaggedPrefetcher
-------------------------------------------------
warn: Base 10 memory/cache size 32kB will be cast to base 2 size 32KiB.
warn: Base 10 memory/cache size 32kB will be cast to base 2 size 32KiB.
warn: Base 10 memory/cache size 256kB will be cast to base 2 size 256KiB.
Global frequency set at 1000000000000 ticks per second
src/arch/riscv/isa.cc:279: info: RVV enabled, VLEN = 256 bits, ELEN = 64 bits
src/base/statistics.hh:279: warn: One of the stats is a legacy stat. Legacy stat is a stat that does not belong to any statistics::Group. Legacy stat is deprecated.
src/base/remote_gdb.cc:418: warn: Sockets disabled, not accepting gdb connections
gem5 Simulator System.  https://www.gem5.org
gem5 is copyrighted software; use the --copyright option for details.

gem5 version 24.1.0.3
gem5 compiled Sep 28 2025 00:02:15
gem5 started Sep 30 2025 09:43:37
gem5 executing on arpit-linux, pid 83822
command line: ../gem5/build/RISCV/gem5.opt --outdir=results/compute_bound_workload/policy_Random test.py --isa=RISCV --binary=compute_bound_workload --cpu-type=O3 --l1i-replace-policy=Random --l1d-replace-policy=Random --l2-replace-policy=Random --ROB-entries=192 --issue-width=4 --commit-width=4 --l1i-size=32kB --l1i-assoc=8 --l1d-size=32kB --l1d-assoc=8 --l2-size=256kB --l2-assoc=16 --branch-predictor-enable --branch-predictor-type=TournamentBP --mem-dep-pred-enable --l1d-prefetcher-type=StridePrefetcher --l2-prefetcher-type=TaggedPrefetcher

info: Standard input is not a terminal, disabling listeners.
src/sim/simulate.cc:199: info: Entering event queue @ 0.  Starting simulation...
src/sim/syscall_emul.cc:97: warn: ignoring syscall set_robust_list(...)
      (further warnings will be suppressed)
src/sim/syscall_emul.hh:1117: warn: readlink() called on '/proc/self/exe' may yield unexpected results in various settings.
      Returning '/home/arpit/Desktop/iitd/sem_7/COL718/projects/OoO-and-Speculation/compute_bound_workload'
src/sim/mem_state.cc:448: info: Increasing stack size by one page.
src/sim/syscall_emul.cc:86: warn: ignoring syscall mprotect(...)
Starting compute-bound workload...
Compute-bound workload complete. Final result (to prevent optimization): -3.759111
Exiting @ tick 4176863955 because exiting with last active thread context.
Simulation finished for results/compute_bound_workload/policy_Random.

-------------------------------------------------
 WORKLOAD: compute_bound_workload
 SAVING TO: results/compute_bound_workload/branch_spec_off
 PARAMS: --ROB-entries=192 --issue-width=4 --commit-width=4 --l1i-size=32kB --l1i-assoc=8 --l1d-size=32kB --l1d-assoc=8 --l2-size=256kB --l2-assoc=16 --l1i-replace-policy=LRU --l1d-replace-policy=LRU --l2-replace-policy=LRU --branch-predictor-type=TournamentBP --mem-dep-pred-enable --l1d-prefetcher-type=StridePrefetcher --l2-prefetcher-type=TaggedPrefetcher
-------------------------------------------------
warn: Base 10 memory/cache size 32kB will be cast to base 2 size 32KiB.
warn: Base 10 memory/cache size 32kB will be cast to base 2 size 32KiB.
warn: Base 10 memory/cache size 256kB will be cast to base 2 size 256KiB.
Global frequency set at 1000000000000 ticks per second
src/arch/riscv/isa.cc:279: info: RVV enabled, VLEN = 256 bits, ELEN = 64 bits
src/base/statistics.hh:279: warn: One of the stats is a legacy stat. Legacy stat is a stat that does not belong to any statistics::Group. Legacy stat is deprecated.
src/base/remote_gdb.cc:418: warn: Sockets disabled, not accepting gdb connections
gem5 Simulator System.  https://www.gem5.org
gem5 is copyrighted software; use the --copyright option for details.

gem5 version 24.1.0.3
gem5 compiled Sep 28 2025 00:02:15
gem5 started Sep 30 2025 09:44:01
gem5 executing on arpit-linux, pid 84035
command line: ../gem5/build/RISCV/gem5.opt --outdir=results/compute_bound_workload/branch_spec_off test.py --isa=RISCV --binary=compute_bound_workload --cpu-type=O3 --ROB-entries=192 --issue-width=4 --commit-width=4 --l1i-size=32kB --l1i-assoc=8 --l1d-size=32kB --l1d-assoc=8 --l2-size=256kB --l2-assoc=16 --l1i-replace-policy=LRU --l1d-replace-policy=LRU --l2-replace-policy=LRU --branch-predictor-type=TournamentBP --mem-dep-pred-enable --l1d-prefetcher-type=StridePrefetcher --l2-prefetcher-type=TaggedPrefetcher

info: Standard input is not a terminal, disabling listeners.
src/sim/simulate.cc:199: info: Entering event queue @ 0.  Starting simulation...
src/sim/syscall_emul.cc:97: warn: ignoring syscall set_robust_list(...)
      (further warnings will be suppressed)
src/sim/syscall_emul.hh:1117: warn: readlink() called on '/proc/self/exe' may yield unexpected results in various settings.
      Returning '/home/arpit/Desktop/iitd/sem_7/COL718/projects/OoO-and-Speculation/compute_bound_workload'
src/sim/mem_state.cc:448: info: Increasing stack size by one page.
src/sim/syscall_emul.cc:86: warn: ignoring syscall mprotect(...)
Starting compute-bound workload...
Compute-bound workload complete. Final result (to prevent optimization): -3.759111
Exiting @ tick 4177109043 because exiting with last active thread context.
Simulation finished for results/compute_bound_workload/branch_spec_off.

-------------------------------------------------
 WORKLOAD: compute_bound_workload
 SAVING TO: results/compute_bound_workload/branch_spec_BiModeBP
 PARAMS: --branch-predictor-type=BiModeBP --ROB-entries=192 --issue-width=4 --commit-width=4 --l1i-size=32kB --l1i-assoc=8 --l1d-size=32kB --l1d-assoc=8 --l2-size=256kB --l2-assoc=16 --l1i-replace-policy=LRU --l1d-replace-policy=LRU --l2-replace-policy=LRU --branch-predictor-enable --mem-dep-pred-enable --l1d-prefetcher-type=StridePrefetcher --l2-prefetcher-type=TaggedPrefetcher
-------------------------------------------------
warn: Base 10 memory/cache size 32kB will be cast to base 2 size 32KiB.
warn: Base 10 memory/cache size 32kB will be cast to base 2 size 32KiB.
warn: Base 10 memory/cache size 256kB will be cast to base 2 size 256KiB.
Global frequency set at 1000000000000 ticks per second
src/arch/riscv/isa.cc:279: info: RVV enabled, VLEN = 256 bits, ELEN = 64 bits
src/base/statistics.hh:279: warn: One of the stats is a legacy stat. Legacy stat is a stat that does not belong to any statistics::Group. Legacy stat is deprecated.
src/base/remote_gdb.cc:418: warn: Sockets disabled, not accepting gdb connections
gem5 Simulator System.  https://www.gem5.org
gem5 is copyrighted software; use the --copyright option for details.

gem5 version 24.1.0.3
gem5 compiled Sep 28 2025 00:02:15
gem5 started Sep 30 2025 09:44:24
gem5 executing on arpit-linux, pid 84180
command line: ../gem5/build/RISCV/gem5.opt --outdir=results/compute_bound_workload/branch_spec_BiModeBP test.py --isa=RISCV --binary=compute_bound_workload --cpu-type=O3 --branch-predictor-type=BiModeBP --ROB-entries=192 --issue-width=4 --commit-width=4 --l1i-size=32kB --l1i-assoc=8 --l1d-size=32kB --l1d-assoc=8 --l2-size=256kB --l2-assoc=16 --l1i-replace-policy=LRU --l1d-replace-policy=LRU --l2-replace-policy=LRU --branch-predictor-enable --mem-dep-pred-enable --l1d-prefetcher-type=StridePrefetcher --l2-prefetcher-type=TaggedPrefetcher

info: Standard input is not a terminal, disabling listeners.
src/sim/simulate.cc:199: info: Entering event queue @ 0.  Starting simulation...
src/sim/syscall_emul.cc:97: warn: ignoring syscall set_robust_list(...)
      (further warnings will be suppressed)
src/sim/syscall_emul.hh:1117: warn: readlink() called on '/proc/self/exe' may yield unexpected results in various settings.
      Returning '/home/arpit/Desktop/iitd/sem_7/COL718/projects/OoO-and-Speculation/compute_bound_workload'
src/sim/mem_state.cc:448: info: Increasing stack size by one page.
src/sim/syscall_emul.cc:86: warn: ignoring syscall mprotect(...)
Starting compute-bound workload...
Compute-bound workload complete. Final result (to prevent optimization): -3.759111
Exiting @ tick 4171809348 because exiting with last active thread context.
Simulation finished for results/compute_bound_workload/branch_spec_BiModeBP.

[...]
 WORKLOAD: streaming_workload
 SAVING TO: results/streaming_workload/mem_spec_off
 PARAMS: --ROB-entries=192 --issue-width=4 --commit-width=4 --l1i-size=32kB --l1i-assoc=8 --l1d-size=32kB --l1d-assoc=8 --l2-size=256kB --l2-assoc=16 --l1i-replace-policy=LRU --l1d-replace-policy=LRU --l2-replace-policy=LRU --branch-predictor-enable --branch-predictor-type=TournamentBP --l1d-prefetcher-type=StridePrefetcher --l2-prefetcher-type=TaggedPrefetcher
-------------------------------------------------
warn: Base 10 memory/cache size 32kB will be cast to base 2 size 32KiB.
warn: Base 10 memory/cache size 32kB will be cast to base 2 size 32KiB.
warn: Base 10 memory/cache size 256kB will be cast to base 2 size 256KiB.
Global frequency set at 1000000000000 ticks per second
src/arch/riscv/isa.cc:279: info: RVV enabled, VLEN = 256 bits, ELEN = 64 bits
src/base/statistics.hh:279: warn: One of the stats is a legacy stat. Legacy stat is a stat that does not belong to any statistics::Group. Legacy stat is deprecated.
src/base/remote_gdb.cc:418: warn: Sockets disabled, not accepting gdb connections
gem5 Simulator System.  https://www.gem5.org
gem5 is copyrighted software; use the --copyright option for details.

gem5 version 24.1.0.3
gem5 compiled Sep 28 2025 00:02:15
gem5 started Sep 30 2025 09:54:29
gem5 executing on arpit-linux, pid 92290
command line: ../gem5/build/RISCV/gem5.opt --outdir=results/streaming_workload/mem_spec_off test.py --isa=RISCV --binary=streaming_workload --cpu-type=O3 --ROB-entries=192 --issue-width=4 --commit-width=4 --l1i-size=32kB --l1i-assoc=8 --l1d-size=32kB --l1d-assoc=8 --l2-size=256kB --l2-assoc=16 --l1i-replace-policy=LRU --l1d-replace-policy=LRU --l2-replace-policy=LRU --branch-predictor-enable --branch-predictor-type=TournamentBP --l1d-prefetcher-type=StridePrefetcher --l2-prefetcher-type=TaggedPrefetcher

info: Standard input is not a terminal, disabling listeners.
src/sim/simulate.cc:199: info: Entering event queue @ 0.  Starting simulation...
src/sim/syscall_emul.cc:97: warn: ignoring syscall set_robust_list(...)
      (further warnings will be suppressed)
src/sim/syscall_emul.hh:1117: warn: readlink() called on '/proc/self/exe' may yield unexpected results in various settings.
      Returning '/home/arpit/Desktop/iitd/sem_7/COL718/projects/OoO-and-Speculation/streaming_workload'
src/sim/mem_state.cc:448: info: Increasing stack size by one page.
src/sim/syscall_emul.cc:86: warn: ignoring syscall mprotect(...)
Starting streaming memory access kernel...
Streaming kernel complete. Result (to prevent optimization): 6.500000
Exiting @ tick 638447247 because exiting with last active thread context.
Simulation finished for results/streaming_workload/mem_spec_off.

-------------------------------------------------
 WORKLOAD: streaming_workload
 SAVING TO: results/streaming_workload/mem_spec_on
 PARAMS: --ROB-entries=192 --issue-width=4 --commit-width=4 --l1i-size=32kB --l1i-assoc=8 --l1d-size=32kB --l1d-assoc=8 --l2-size=256kB --l2-assoc=16 --l1i-replace-policy=LRU --l1d-replace-policy=LRU --l2-replace-policy=LRU --branch-predictor-enable --branch-predictor-type=TournamentBP --mem-dep-pred-enable --l1d-prefetcher-type=StridePrefetcher --l2-prefetcher-type=TaggedPrefetcher
-------------------------------------------------
warn: Base 10 memory/cache size 32kB will be cast to base 2 size 32KiB.
warn: Base 10 memory/cache size 32kB will be cast to base 2 size 32KiB.
warn: Base 10 memory/cache size 256kB will be cast to base 2 size 256KiB.
Global frequency set at 1000000000000 ticks per second
src/arch/riscv/isa.cc:279: info: RVV enabled, VLEN = 256 bits, ELEN = 64 bits
src/base/statistics.hh:279: warn: One of the stats is a legacy stat. Legacy stat is a stat that does not belong to any statistics::Group. Legacy stat is deprecated.
src/base/remote_gdb.cc:418: warn: Sockets disabled, not accepting gdb connections
gem5 Simulator System.  https://www.gem5.org
gem5 is copyrighted software; use the --copyright option for details.

gem5 version 24.1.0.3
gem5 compiled Sep 28 2025 00:02:15
gem5 started Sep 30 2025 09:54:33
gem5 executing on arpit-linux, pid 92368
command line: ../gem5/build/RISCV/gem5.opt --outdir=results/streaming_workload/mem_spec_on test.py --isa=RISCV --binary=streaming_workload --cpu-type=O3 --ROB-entries=192 --issue-width=4 --commit-width=4 --l1i-size=32kB --l1i-assoc=8 --l1d-size=32kB --l1d-assoc=8 --l2-size=256kB --l2-assoc=16 --l1i-replace-policy=LRU --l1d-replace-policy=LRU --l2-replace-policy=LRU --branch-predictor-enable --branch-predictor-type=TournamentBP --mem-dep-pred-enable --l1d-prefetcher-type=StridePrefetcher --l2-prefetcher-type=TaggedPrefetcher

info: Standard input is not a terminal, disabling listeners.
src/sim/simulate.cc:199: info: Entering event queue @ 0.  Starting simulation...
src/sim/syscall_emul.cc:97: warn: ignoring syscall set_robust_list(...)
      (further warnings will be suppressed)
src/sim/syscall_emul.hh:1117: warn: readlink() called on '/proc/self/exe' may yield unexpected results in various settings.
      Returning '/home/arpit/Desktop/iitd/sem_7/COL718/projects/OoO-and-Speculation/streaming_workload'
src/sim/mem_state.cc:448: info: Increasing stack size by one page.
src/sim/syscall_emul.cc:86: warn: ignoring syscall mprotect(...)
Starting streaming memory access kernel...
Streaming kernel complete. Result (to prevent optimization): 6.500000
Exiting @ tick 252996750 because exiting with last active thread context.
Simulation finished for results/streaming_workload/mem_spec_on.

-------------------------------------------------
 WORKLOAD: streaming_workload
 SAVING TO: results/streaming_workload/prefetcher_off
 PARAMS: --l1d-prefetcher-type=None --ROB-entries=192 --issue-width=4 --commit-width=4 --l1i-size=32kB --l1i-assoc=8 --l1d-size=32kB --l1d-assoc=8 --l2-size=256kB --l2-assoc=16 --l1i-replace-policy=LRU --l1d-replace-policy=LRU --l2-replace-policy=LRU --branch-predictor-enable --branch-predictor-type=TournamentBP --mem-dep-pred-enable --l2-prefetcher-type=TaggedPrefetcher
-------------------------------------------------
warn: Base 10 memory/cache size 32kB will be cast to base 2 size 32KiB.
warn: Base 10 memory/cache size 32kB will be cast to base 2 size 32KiB.
warn: Base 10 memory/cache size 256kB will be cast to base 2 size 256KiB.
Global frequency set at 1000000000000 ticks per second
src/arch/riscv/isa.cc:279: info: RVV enabled, VLEN = 256 bits, ELEN = 64 bits
src/base/statistics.hh:279: warn: One of the stats is a legacy stat. Legacy stat is a stat that does not belong to any statistics::Group. Legacy stat is deprecated.
src/base/remote_gdb.cc:418: warn: Sockets disabled, not accepting gdb connections
gem5 Simulator System.  https://www.gem5.org
gem5 is copyrighted software; use the --copyright option for details.

gem5 version 24.1.0.3
gem5 compiled Sep 28 2025 00:02:15
gem5 started Sep 30 2025 09:54:37
gem5 executing on arpit-linux, pid 92471
command line: ../gem5/build/RISCV/gem5.opt --outdir=results/streaming_workload/prefetcher_off test.py --isa=RISCV --binary=streaming_workload --cpu-type=O3 --l1d-prefetcher-type=None --ROB-entries=192 --issue-width=4 --commit-width=4 --l1i-size=32kB --l1i-assoc=8 --l1d-size=32kB --l1d-assoc=8 --l2-size=256kB --l2-assoc=16 --l1i-replace-policy=LRU --l1d-replace-policy=LRU --l2-replace-policy=LRU --branch-predictor-enable --branch-predictor-type=TournamentBP --mem-dep-pred-enable --l2-prefetcher-type=TaggedPrefetcher

info: Standard input is not a terminal, disabling listeners.
src/sim/simulate.cc:199: info: Entering event queue @ 0.  Starting simulation...
src/sim/syscall_emul.cc:97: warn: ignoring syscall set_robust_list(...)
      (further warnings will be suppressed)
src/sim/syscall_emul.hh:1117: warn: readlink() called on '/proc/self/exe' may yield unexpected results in various settings.
      Returning '/home/arpit/Desktop/iitd/sem_7/COL718/projects/OoO-and-Speculation/streaming_workload'
src/sim/mem_state.cc:448: info: Increasing stack size by one page.
src/sim/syscall_emul.cc:86: warn: ignoring syscall mprotect(...)
Starting streaming memory access kernel...
Streaming kernel complete. Result (to prevent optimization): 6.500000
Exiting @ tick 337331331 because exiting with last active thread context.
Simulation finished for results/streaming_workload/prefetcher_off.

-------------------------------------------------
 WORKLOAD: streaming_workload
 SAVING TO: results/streaming_workload/prefetcher_on
 PARAMS: --ROB-entries=192 --issue-width=4 --commit-width=4 --l1i-size=32kB --l1i-assoc=8 --l1d-size=32kB --l1d-assoc=8 --l2-size=256kB --l2-assoc=16 --l1i-replace-policy=LRU --l1d-replace-policy=LRU --l2-replace-policy=LRU --branch-predictor-enable --branch-predictor-type=TournamentBP --mem-dep-pred-enable --l1d-prefetcher-type=StridePrefetcher --l2-prefetcher-type=TaggedPrefetcher
-------------------------------------------------
warn: Base 10 memory/cache size 32kB will be cast to base 2 size 32KiB.
warn: Base 10 memory/cache size 32kB will be cast to base 2 size 32KiB.
warn: Base 10 memory/cache size 256kB will be cast to base 2 size 256KiB.
Global frequency set at 1000000000000 ticks per second
src/arch/riscv/isa.cc:279: info: RVV enabled, VLEN = 256 bits, ELEN = 64 bits
src/base/statistics.hh:279: warn: One of the stats is a legacy stat. Legacy stat is a stat that does not belong to any statistics::Group. Legacy stat is deprecated.
src/base/remote_gdb.cc:418: warn: Sockets disabled, not accepting gdb connections
gem5 Simulator System.  https://www.gem5.org
gem5 is copyrighted software; use the --copyright option for details.

gem5 version 24.1.0.3
gem5 compiled Sep 28 2025 00:02:15
gem5 started Sep 30 2025 09:54:41
gem5 executing on arpit-linux, pid 92522
command line: ../gem5/build/RISCV/gem5.opt --outdir=results/streaming_workload/prefetcher_on test.py --isa=RISCV --binary=streaming_workload --cpu-type=O3 --ROB-entries=192 --issue-width=4 --commit-width=4 --l1i-size=32kB --l1i-assoc=8 --l1d-size=32kB --l1d-assoc=8 --l2-size=256kB --l2-assoc=16 --l1i-replace-policy=LRU --l1d-replace-policy=LRU --l2-replace-policy=LRU --branch-predictor-enable --branch-predictor-type=TournamentBP --mem-dep-pred-enable --l1d-prefetcher-type=StridePrefetcher --l2-prefetcher-type=TaggedPrefetcher

info: Standard input is not a terminal, disabling listeners.
src/sim/simulate.cc:199: info: Entering event queue @ 0.  Starting simulation...
src/sim/syscall_emul.cc:97: warn: ignoring syscall set_robust_list(...)
      (further warnings will be suppressed)
src/sim/syscall_emul.hh:1117: warn: readlink() called on '/proc/self/exe' may yield unexpected results in various settings.
      Returning '/home/arpit/Desktop/iitd/sem_7/COL718/projects/OoO-and-Speculation/streaming_workload'
src/sim/mem_state.cc:448: info: Increasing stack size by one page.
src/sim/syscall_emul.cc:86: warn: ignoring syscall mprotect(...)
Starting streaming memory access kernel...
Streaming kernel complete. Result (to prevent optimization): 6.500000
Exiting @ tick 252996750 because exiting with last active thread context.
Simulation finished for results/streaming_workload/prefetcher_on.

-------------------------------------------------
 WORKLOAD: streaming_workload
 SAVING TO: results/streaming_workload/l2_prefetcher_off
 PARAMS: --l2-prefetcher-type=None --ROB-entries=192 --issue-width=4 --commit-width=4 --l1i-size=32kB --l1i-assoc=8 --l1d-size=32kB --l1d-assoc=8 --l2-size=256kB --l2-assoc=16 --l1i-replace-policy=LRU --l1d-replace-policy=LRU --l2-replace-policy=LRU --branch-predictor-enable --branch-predictor-type=TournamentBP --mem-dep-pred-enable --l1d-prefetcher-type=StridePrefetcher --l2-prefetcher-type=TaggedPrefetcher
-------------------------------------------------
warn: Base 10 memory/cache size 32kB will be cast to base 2 size 32KiB.
warn: Base 10 memory/cache size 32kB will be cast to base 2 size 32KiB.
warn: Base 10 memory/cache size 256kB will be cast to base 2 size 256KiB.
Global frequency set at 1000000000000 ticks per second
src/arch/riscv/isa.cc:279: info: RVV enabled, VLEN = 256 bits, ELEN = 64 bits
src/base/statistics.hh:279: warn: One of the stats is a legacy stat. Legacy stat is a stat that does not belong to any statistics::Group. Legacy stat is deprecated.
src/base/remote_gdb.cc:418: warn: Sockets disabled, not accepting gdb connections
gem5 Simulator System.  https://www.gem5.org
gem5 is copyrighted software; use the --copyright option for details.

gem5 version 24.1.0.3
gem5 compiled Sep 28 2025 00:02:15
gem5 started Sep 30 2025 09:54:44
gem5 executing on arpit-linux, pid 92599
command line: ../gem5/build/RISCV/gem5.opt --outdir=results/streaming_workload/l2_prefetcher_off test.py --isa=RISCV --binary=streaming_workload --cpu-type=O3 --l2-prefetcher-type=None --ROB-entries=192 --issue-width=4 --commit-width=4 --l1i-size=32kB --l1i-assoc=8 --l1d-size=32kB --l1d-assoc=8 --l2-size=256kB --l2-assoc=16 --l1i-replace-policy=LRU --l1d-replace-policy=LRU --l2-replace-policy=LRU --branch-predictor-enable --branch-predictor-type=TournamentBP --mem-dep-pred-enable --l1d-prefetcher-type=StridePrefetcher --l2-prefetcher-type=TaggedPrefetcher

info: Standard input is not a terminal, disabling listeners.
src/sim/simulate.cc:199: info: Entering event queue @ 0.  Starting simulation...
src/sim/syscall_emul.cc:97: warn: ignoring syscall set_robust_list(...)
      (further warnings will be suppressed)
src/sim/syscall_emul.hh:1117: warn: readlink() called on '/proc/self/exe' may yield unexpected results in various settings.
      Returning '/home/arpit/Desktop/iitd/sem_7/COL718/projects/OoO-and-Speculation/streaming_workload'
src/sim/mem_state.cc:448: info: Increasing stack size by one page.
src/sim/syscall_emul.cc:86: warn: ignoring syscall mprotect(...)
Starting streaming memory access kernel...
Streaming kernel complete. Result (to prevent optimization): 6.500000
Exiting @ tick 252996750 because exiting with last active thread context.
Simulation finished for results/streaming_workload/l2_prefetcher_off.

-------------------------------------------------
 WORKLOAD: streaming_workload
 SAVING TO: results/streaming_workload/l2_prefetcher_TaggedPrefetcher
 PARAMS: --l2-prefetcher-type=TaggedPrefetcher --ROB-entries=192 --issue-width=4 --commit-width=4 --l1i-size=32kB --l1i-assoc=8 --l1d-size=32kB --l1d-assoc=8 --l2-size=256kB --l2-assoc=16 --l1i-replace-policy=LRU --l1d-replace-policy=LRU --l2-replace-policy=LRU --branch-predictor-enable --branch-predictor-type=TournamentBP --mem-dep-pred-enable --l1d-prefetcher-type=StridePrefetcher --l2-prefetcher-type=TaggedPrefetcher
-------------------------------------------------
warn: Base 10 memory/cache size 32kB will be cast to base 2 size 32KiB.
warn: Base 10 memory/cache size 32kB will be cast to base 2 size 32KiB.
warn: Base 10 memory/cache size 256kB will be cast to base 2 size 256KiB.
Global frequency set at 1000000000000 ticks per second
src/arch/riscv/isa.cc:279: info: RVV enabled, VLEN = 256 bits, ELEN = 64 bits
src/base/statistics.hh:279: warn: One of the stats is a legacy stat. Legacy stat is a stat that does not belong to any statistics::Group. Legacy stat is deprecated.
src/base/remote_gdb.cc:418: warn: Sockets disabled, not accepting gdb connections
gem5 Simulator System.  https://www.gem5.org
gem5 is copyrighted software; use the --copyright option for details.

gem5 version 24.1.0.3
gem5 compiled Sep 28 2025 00:02:15
gem5 started Sep 30 2025 09:54:48
gem5 executing on arpit-linux, pid 92679
command line: ../gem5/build/RISCV/gem5.opt --outdir=results/streaming_workload/l2_prefetcher_TaggedPrefetcher test.py --isa=RISCV --binary=streaming_workload --cpu-type=O3 --l2-prefetcher-type=TaggedPrefetcher --ROB-entries=192 --issue-width=4 --commit-width=4 --l1i-size=32kB --l1i-assoc=8 --l1d-size=32kB --l1d-assoc=8 --l2-size=256kB --l2-assoc=16 --l1i-replace-policy=LRU --l1d-replace-policy=LRU --l2-replace-policy=LRU --branch-predictor-enable --branch-predictor-type=TournamentBP --mem-dep-pred-enable --l1d-prefetcher-type=StridePrefetcher --l2-prefetcher-type=TaggedPrefetcher

info: Standard input is not a terminal, disabling listeners.
src/sim/simulate.cc:199: info: Entering event queue @ 0.  Starting simulation...
src/sim/syscall_emul.cc:97: warn: ignoring syscall set_robust_list(...)
      (further warnings will be suppressed)
src/sim/syscall_emul.hh:1117: warn: readlink() called on '/proc/self/exe' may yield unexpected results in various settings.
      Returning '/home/arpit/Desktop/iitd/sem_7/COL718/projects/OoO-and-Speculation/streaming_workload'
src/sim/mem_state.cc:448: info: Increasing stack size by one page.
src/sim/syscall_emul.cc:86: warn: ignoring syscall mprotect(...)
Starting streaming memory access kernel...
Streaming kernel complete. Result (to prevent optimization): 6.500000
Exiting @ tick 252996750 because exiting with last active thread context.
Simulation finished for results/streaming_workload/l2_prefetcher_TaggedPrefetcher.

-------------------------------------------------
 WORKLOAD: streaming_workload
 SAVING TO: results/streaming_workload/l2_prefetcher_DCPTPrefetcher
 PARAMS: --l2-prefetcher-type=DCPTPrefetcher --ROB-entries=192 --issue-width=4 --commit-width=4 --l1i-size=32kB --l1i-assoc=8 --l1d-size=32kB --l1d-assoc=8 --l2-size=256kB --l2-assoc=16 --l1i-replace-policy=LRU --l1d-replace-policy=LRU --l2-replace-policy=LRU --branch-predictor-enable --branch-predictor-type=TournamentBP --mem-dep-pred-enable --l1d-prefetcher-type=StridePrefetcher --l2-prefetcher-type=TaggedPrefetcher
-------------------------------------------------
warn: Base 10 memory/cache size 32kB will be cast to base 2 size 32KiB.
warn: Base 10 memory/cache size 32kB will be cast to base 2 size 32KiB.
warn: Base 10 memory/cache size 256kB will be cast to base 2 size 256KiB.
Global frequency set at 1000000000000 ticks per second
src/arch/riscv/isa.cc:279: info: RVV enabled, VLEN = 256 bits, ELEN = 64 bits
src/base/statistics.hh:279: warn: One of the stats is a legacy stat. Legacy stat is a stat that does not belong to any statistics::Group. Legacy stat is deprecated.
src/base/remote_gdb.cc:418: warn: Sockets disabled, not accepting gdb connections
gem5 Simulator System.  https://www.gem5.org
gem5 is copyrighted software; use the --copyright option for details.

gem5 version 24.1.0.3
gem5 compiled Sep 28 2025 00:02:15
gem5 started Sep 30 2025 09:54:52
gem5 executing on arpit-linux, pid 92724
command line: ../gem5/build/RISCV/gem5.opt --outdir=results/streaming_workload/l2_prefetcher_DCPTPrefetcher test.py --isa=RISCV --binary=streaming_workload --cpu-type=O3 --l2-prefetcher-type=DCPTPrefetcher --ROB-entries=192 --issue-width=4 --commit-width=4 --l1i-size=32kB --l1i-assoc=8 --l1d-size=32kB --l1d-assoc=8 --l2-size=256kB --l2-assoc=16 --l1i-replace-policy=LRU --l1d-replace-policy=LRU --l2-replace-policy=LRU --branch-predictor-enable --branch-predictor-type=TournamentBP --mem-dep-pred-enable --l1d-prefetcher-type=StridePrefetcher --l2-prefetcher-type=TaggedPrefetcher

info: Standard input is not a terminal, disabling listeners.
src/sim/simulate.cc:199: info: Entering event queue @ 0.  Starting simulation...
src/sim/syscall_emul.cc:97: warn: ignoring syscall set_robust_list(...)
      (further warnings will be suppressed)
src/sim/syscall_emul.hh:1117: warn: readlink() called on '/proc/self/exe' may yield unexpected results in various settings.
      Returning '/home/arpit/Desktop/iitd/sem_7/COL718/projects/OoO-and-Speculation/streaming_workload'
src/sim/mem_state.cc:448: info: Increasing stack size by one page.
src/sim/syscall_emul.cc:86: warn: ignoring syscall mprotect(...)
Starting streaming memory access kernel...
Streaming kernel complete. Result (to prevent optimization): 6.500000
Exiting @ tick 252996750 because exiting with last active thread context.
Simulation finished for results/streaming_workload/l2_prefetcher_DCPTPrefetcher.

./compile.sh: line 203: syntax error near unexpected token `done'
