nohup: ignoring input
=================================================
 Compiling C Workloads for RISC-V...
=================================================
Compiling pointer_chasing_wl.c -> pointer_chaser_workload...
Compiling compute_bound_wl.c -> compute_bound_workload...
Compiling streaming_kernel_wl.c -> streaming_workload...
All workloads compiled successfully.

-------------------------------------------------
 WORKLOAD: compute_bound_workload
 SAVING TO: results/compute_bound_workload/rob_64
 PARAMS: --ROB-entries=64 --issue-width=4 --commit-width=4 --l1i-size=32kB --l1i-assoc=8 --l1d-size=32kB --l1d-assoc=8 --l2-size=256kB --l2-assoc=16 --l1i-replace-policy=LRU --l1d-replace-policy=LRU --l2-replace-policy=LRU --branch-predictor-enable --branch-predictor-type=TournamentBP --mem-dep-pred-enable --l1d-prefetcher-type=StridePrefetcher --l2-prefetcher-type=TaggedPrefetcher
-------------------------------------------------
warn: Base 10 memory/cache size 32kB will be cast to base 2 size 32KiB.
warn: Base 10 memory/cache size 32kB will be cast to base 2 size 32KiB.
warn: Base 10 memory/cache size 256kB will be cast to base 2 size 256KiB.
Global frequency set at 1000000000000 ticks per second
src/arch/riscv/isa.cc:279: info: RVV enabled, VLEN = 256 bits, ELEN = 64 bits
src/base/statistics.hh:279: warn: One of the stats is a legacy stat. Legacy stat is a stat that does not belong to any statistics::Group. Legacy stat is deprecated.
src/base/remote_gdb.cc:418: warn: Sockets disabled, not accepting gdb connections
gem5 Simulator System.  https://www.gem5.org
gem5 is copyrighted software; use the --copyright option for details.

gem5 version 24.1.0.3
gem5 compiled Sep 28 2025 00:02:15
gem5 started Oct  1 2025 13:00:28
gem5 executing on arpit-linux, pid 18885
command line: ../gem5/build/RISCV/gem5.opt --outdir=results/compute_bound_workload/rob_64 test.py --isa=RISCV --binary=compute_bound_workload --cpu-type=O3 --ROB-entries=64 --issue-width=4 --commit-width=4 --l1i-size=32kB --l1i-assoc=8 --l1d-size=32kB --l1d-assoc=8 --l2-size=256kB --l2-assoc=16 --l1i-replace-policy=LRU --l1d-replace-policy=LRU --l2-replace-policy=LRU --branch-predictor-enable --branch-predictor-type=TournamentBP --mem-dep-pred-enable --l1d-prefetcher-type=StridePrefetcher --l2-prefetcher-type=TaggedPrefetcher

info: Standard input is not a terminal, disabling listeners.
src/sim/simulate.cc:199: info: Entering event queue @ 0.  Starting simulation...
src/sim/syscall_emul.cc:97: warn: ignoring syscall set_robust_list(...)
      (further warnings will be suppressed)
src/sim/syscall_emul.hh:1117: warn: readlink() called on '/proc/self/exe' may yield unexpected results in various settings.
      Returning '/home/arpit/Desktop/iitd/sem_7/COL718/projects/OoO-and-Speculation/compute_bound_workload'
src/sim/mem_state.cc:448: info: Increasing stack size by one page.
src/sim/syscall_emul.cc:86: warn: ignoring syscall mprotect(...)
Starting compute-bound workload...
Compute-bound workload complete. Final result (to prevent optimization): -47.596219
Exiting @ tick 41207672079 because exiting with last active thread context.
Simulation finished for results/compute_bound_workload/rob_64.

-------------------------------------------------
 WORKLOAD: compute_bound_workload
 SAVING TO: results/compute_bound_workload/rob_128
 PARAMS: --ROB-entries=128 --issue-width=4 --commit-width=4 --l1i-size=32kB --l1i-assoc=8 --l1d-size=32kB --l1d-assoc=8 --l2-size=256kB --l2-assoc=16 --l1i-replace-policy=LRU --l1d-replace-policy=LRU --l2-replace-policy=LRU --branch-predictor-enable --branch-predictor-type=TournamentBP --mem-dep-pred-enable --l1d-prefetcher-type=StridePrefetcher --l2-prefetcher-type=TaggedPrefetcher
-------------------------------------------------
warn: Base 10 memory/cache size 32kB will be cast to base 2 size 32KiB.
warn: Base 10 memory/cache size 32kB will be cast to base 2 size 32KiB.
warn: Base 10 memory/cache size 256kB will be cast to base 2 size 256KiB.
Global frequency set at 1000000000000 ticks per second
src/arch/riscv/isa.cc:279: info: RVV enabled, VLEN = 256 bits, ELEN = 64 bits
src/base/statistics.hh:279: warn: One of the stats is a legacy stat. Legacy stat is a stat that does not belong to any statistics::Group. Legacy stat is deprecated.
src/base/remote_gdb.cc:418: warn: Sockets disabled, not accepting gdb connections
gem5 Simulator System.  https://www.gem5.org
gem5 is copyrighted software; use the --copyright option for details.

gem5 version 24.1.0.3
gem5 compiled Sep 28 2025 00:02:15
gem5 started Oct  1 2025 13:04:00
gem5 executing on arpit-linux, pid 19311
command line: ../gem5/build/RISCV/gem5.opt --outdir=results/compute_bound_workload/rob_128 test.py --isa=RISCV --binary=compute_bound_workload --cpu-type=O3 --ROB-entries=128 --issue-width=4 --commit-width=4 --l1i-size=32kB --l1i-assoc=8 --l1d-size=32kB --l1d-assoc=8 --l2-size=256kB --l2-assoc=16 --l1i-replace-policy=LRU --l1d-replace-policy=LRU --l2-replace-policy=LRU --branch-predictor-enable --branch-predictor-type=TournamentBP --mem-dep-pred-enable --l1d-prefetcher-type=StridePrefetcher --l2-prefetcher-type=TaggedPrefetcher

info: Standard input is not a terminal, disabling listeners.
src/sim/simulate.cc:199: info: Entering event queue @ 0.  Starting simulation...
src/sim/syscall_emul.cc:97: warn: ignoring syscall set_robust_list(...)
      (further warnings will be suppressed)
src/sim/syscall_emul.hh:1117: warn: readlink() called on '/proc/self/exe' may yield unexpected results in various settings.
      Returning '/home/arpit/Desktop/iitd/sem_7/COL718/projects/OoO-and-Speculation/compute_bound_workload'
src/sim/mem_state.cc:448: info: Increasing stack size by one page.
src/sim/syscall_emul.cc:86: warn: ignoring syscall mprotect(...)
Starting compute-bound workload...
Compute-bound workload complete. Final result (to prevent optimization): -47.596219
Exiting @ tick 41405712507 because exiting with last active thread context.
Simulation finished for results/compute_bound_workload/rob_128.

-------------------------------------------------
 WORKLOAD: compute_bound_workload
 SAVING TO: results/compute_bound_workload/rob_192
 PARAMS: --ROB-entries=192 --issue-width=4 --commit-width=4 --l1i-size=32kB --l1i-assoc=8 --l1d-size=32kB --l1d-assoc=8 --l2-size=256kB --l2-assoc=16 --l1i-replace-policy=LRU --l1d-replace-policy=LRU --l2-replace-policy=LRU --branch-predictor-enable --branch-predictor-type=TournamentBP --mem-dep-pred-enable --l1d-prefetcher-type=StridePrefetcher --l2-prefetcher-type=TaggedPrefetcher
-------------------------------------------------
warn: Base 10 memory/cache size 32kB will be cast to base 2 size 32KiB.
warn: Base 10 memory/cache size 32kB will be cast to base 2 size 32KiB.
warn: Base 10 memory/cache size 256kB will be cast to base 2 size 256KiB.
Global frequency set at 1000000000000 ticks per second
src/arch/riscv/isa.cc:279: info: RVV enabled, VLEN = 256 bits, ELEN = 64 bits
src/base/statistics.hh:279: warn: One of the stats is a legacy stat. Legacy stat is a stat that does not belong to any statistics::Group. Legacy stat is deprecated.
src/base/remote_gdb.cc:418: warn: Sockets disabled, not accepting gdb connections
gem5 Simulator System.  https://www.gem5.org
gem5 is copyrighted software; use the --copyright option for details.

gem5 version 24.1.0.3
gem5 compiled Sep 28 2025 00:02:15
gem5 started Oct  1 2025 13:07:41
gem5 executing on arpit-linux, pid 19628
command line: ../gem5/build/RISCV/gem5.opt --outdir=results/compute_bound_workload/rob_192 test.py --isa=RISCV --binary=compute_bound_workload --cpu-type=O3 --ROB-entries=192 --issue-width=4 --commit-width=4 --l1i-size=32kB --l1i-assoc=8 --l1d-size=32kB --l1d-assoc=8 --l2-size=256kB --l2-assoc=16 --l1i-replace-policy=LRU --l1d-replace-policy=LRU --l2-replace-policy=LRU --branch-predictor-enable --branch-predictor-type=TournamentBP --mem-dep-pred-enable --l1d-prefetcher-type=StridePrefetcher --l2-prefetcher-type=TaggedPrefetcher

info: Standard input is not a terminal, disabling listeners.
src/sim/simulate.cc:199: info: Entering event queue @ 0.  Starting simulation...
src/sim/syscall_emul.cc:97: warn: ignoring syscall set_robust_list(...)
      (further warnings will be suppressed)
src/sim/syscall_emul.hh:1117: warn: readlink() called on '/proc/self/exe' may yield unexpected results in various settings.
      Returning '/home/arpit/Desktop/iitd/sem_7/COL718/projects/OoO-and-Speculation/compute_bound_workload'
src/sim/mem_state.cc:448: info: Increasing stack size by one page.
src/sim/syscall_emul.cc:86: warn: ignoring syscall mprotect(...)
Starting compute-bound workload...
Compute-bound workload complete. Final result (to prevent optimization): -47.596219
Exiting @ tick 41404466421 because exiting with last active thread context.
Simulation finished for results/compute_bound_workload/rob_192.

-------------------------------------------------
 WORKLOAD: compute_bound_workload
 SAVING TO: results/compute_bound_workload/rob_256
 PARAMS: --ROB-entries=256 --issue-width=4 --commit-width=4 --l1i-size=32kB --l1i-assoc=8 --l1d-size=32kB --l1d-assoc=8 --l2-size=256kB --l2-assoc=16 --l1i-replace-policy=LRU --l1d-replace-policy=LRU --l2-replace-policy=LRU --branch-predictor-enable --branch-predictor-type=TournamentBP --mem-dep-pred-enable --l1d-prefetcher-type=StridePrefetcher --l2-prefetcher-type=TaggedPrefetcher
-------------------------------------------------
warn: Base 10 memory/cache size 32kB will be cast to base 2 size 32KiB.
warn: Base 10 memory/cache size 32kB will be cast to base 2 size 32KiB.
warn: Base 10 memory/cache size 256kB will be cast to base 2 size 256KiB.
Global frequency set at 1000000000000 ticks per second
src/arch/riscv/isa.cc:279: info: RVV enabled, VLEN = 256 bits, ELEN = 64 bits
src/base/statistics.hh:279: warn: One of the stats is a legacy stat. Legacy stat is a stat that does not belong to any statistics::Group. Legacy stat is deprecated.
src/base/remote_gdb.cc:418: warn: Sockets disabled, not accepting gdb connections
gem5 Simulator System.  https://www.gem5.org
gem5 is copyrighted software; use the --copyright option for details.

gem5 version 24.1.0.3
gem5 compiled Sep 28 2025 00:02:15
gem5 started Oct  1 2025 13:11:24
gem5 executing on arpit-linux, pid 19892
command line: ../gem5/build/RISCV/gem5.opt --outdir=results/compute_bound_workload/rob_256 test.py --isa=RISCV --binary=compute_bound_workload --cpu-type=O3 --ROB-entries=256 --issue-width=4 --commit-width=4 --l1i-size=32kB --l1i-assoc=8 --l1d-size=32kB --l1d-assoc=8 --l2-size=256kB --l2-assoc=16 --l1i-replace-policy=LRU --l1d-replace-policy=LRU --l2-replace-policy=LRU --branch-predictor-enable --branch-predictor-type=TournamentBP --mem-dep-pred-enable --l1d-prefetcher-type=StridePrefetcher --l2-prefetcher-type=TaggedPrefetcher

info: Standard input is not a terminal, disabling listeners.
src/sim/simulate.cc:199: info: Entering event queue @ 0.  Starting simulation...
src/sim/syscall_emul.cc:97: warn: ignoring syscall set_robust_list(...)
      (further warnings will be suppressed)
src/sim/syscall_emul.hh:1117: warn: readlink() called on '/proc/self/exe' may yield unexpected results in various settings.
      Returning '/home/arpit/Desktop/iitd/sem_7/COL718/projects/OoO-and-Speculation/compute_bound_workload'
src/sim/mem_state.cc:448: info: Increasing stack size by one page.
src/sim/syscall_emul.cc:86: warn: ignoring syscall mprotect(...)
Starting compute-bound workload...
Compute-bound workload complete. Final result (to prevent optimization): -47.596219
Exiting @ tick 41404460427 because exiting with last active thread context.
Simulation finished for results/compute_bound_workload/rob_256.

-------------------------------------------------
 WORKLOAD: compute_bound_workload
 SAVING TO: results/compute_bound_workload/width_2
 PARAMS: --issue-width=2 --commit-width=2 --ROB-entries=192 --l1i-size=32kB --l1i-assoc=8 --l1d-size=32kB --l1d-assoc=8 --l2-size=256kB --l2-assoc=16 --l1i-replace-policy=LRU --l1d-replace-policy=LRU --l2-replace-policy=LRU --branch-predictor-enable --branch-predictor-type=TournamentBP --mem-dep-pred-enable --l1d-prefetcher-type=StridePrefetcher --l2-prefetcher-type=TaggedPrefetcher
-------------------------------------------------
warn: Base 10 memory/cache size 32kB will be cast to base 2 size 32KiB.
warn: Base 10 memory/cache size 32kB will be cast to base 2 size 32KiB.
warn: Base 10 memory/cache size 256kB will be cast to base 2 size 256KiB.
Global frequency set at 1000000000000 ticks per second
src/arch/riscv/isa.cc:279: info: RVV enabled, VLEN = 256 bits, ELEN = 64 bits
src/base/statistics.hh:279: warn: One of the stats is a legacy stat. Legacy stat is a stat that does not belong to any statistics::Group. Legacy stat is deprecated.
src/base/remote_gdb.cc:418: warn: Sockets disabled, not accepting gdb connections
gem5 Simulator System.  https://www.gem5.org
gem5 is copyrighted software; use the --copyright option for details.

gem5 version 24.1.0.3
gem5 compiled Sep 28 2025 00:02:15
gem5 started Oct  1 2025 13:15:05
gem5 executing on arpit-linux, pid 20203
command line: ../gem5/build/RISCV/gem5.opt --outdir=results/compute_bound_workload/width_2 test.py --isa=RISCV --binary=compute_bound_workload --cpu-type=O3 --issue-width=2 --commit-width=2 --ROB-entries=192 --l1i-size=32kB --l1i-assoc=8 --l1d-size=32kB --l1d-assoc=8 --l2-size=256kB --l2-assoc=16 --l1i-replace-policy=LRU --l1d-replace-policy=LRU --l2-replace-policy=LRU --branch-predictor-enable --branch-predictor-type=TournamentBP --mem-dep-pred-enable --l1d-prefetcher-type=StridePrefetcher --l2-prefetcher-type=TaggedPrefetcher

info: Standard input is not a terminal, disabling listeners.
src/sim/simulate.cc:199: info: Entering event queue @ 0.  Starting simulation...
src/sim/syscall_emul.cc:97: warn: ignoring syscall set_robust_list(...)
      (further warnings will be suppressed)
src/sim/syscall_emul.hh:1117: warn: readlink() called on '/proc/self/exe' may yield unexpected results in various settings.
      Returning '/home/arpit/Desktop/iitd/sem_7/COL718/projects/OoO-and-Speculation/compute_bound_workload'
src/sim/mem_state.cc:448: info: Increasing stack size by one page.
src/sim/syscall_emul.cc:86: warn: ignoring syscall mprotect(...)
Starting compute-bound workload...
Compute-bound workload complete. Final result (to prevent optimization): -47.596219
Exiting @ tick 41411102778 because exiting with last active thread context.
Simulation finished for results/compute_bound_workload/width_2.

-------------------------------------------------
 WORKLOAD: compute_bound_workload
 SAVING TO: results/compute_bound_workload/width_4
 PARAMS: --issue-width=4 --commit-width=4 --ROB-entries=192 --l1i-size=32kB --l1i-assoc=8 --l1d-size=32kB --l1d-assoc=8 --l2-size=256kB --l2-assoc=16 --l1i-replace-policy=LRU --l1d-replace-policy=LRU --l2-replace-policy=LRU --branch-predictor-enable --branch-predictor-type=TournamentBP --mem-dep-pred-enable --l1d-prefetcher-type=StridePrefetcher --l2-prefetcher-type=TaggedPrefetcher
-------------------------------------------------
warn: Base 10 memory/cache size 32kB will be cast to base 2 size 32KiB.
warn: Base 10 memory/cache size 32kB will be cast to base 2 size 32KiB.
warn: Base 10 memory/cache size 256kB will be cast to base 2 size 256KiB.
Global frequency set at 1000000000000 ticks per second
src/arch/riscv/isa.cc:279: info: RVV enabled, VLEN = 256 bits, ELEN = 64 bits
src/base/statistics.hh:279: warn: One of the stats is a legacy stat. Legacy stat is a stat that does not belong to any statistics::Group. Legacy stat is deprecated.
src/base/remote_gdb.cc:418: warn: Sockets disabled, not accepting gdb connections
gem5 Simulator System.  https://www.gem5.org
gem5 is copyrighted software; use the --copyright option for details.

gem5 version 24.1.0.3
gem5 compiled Sep 28 2025 00:02:15
gem5 started Oct  1 2025 13:18:47
gem5 executing on arpit-linux, pid 20521
command line: ../gem5/build/RISCV/gem5.opt --outdir=results/compute_bound_workload/width_4 test.py --isa=RISCV --binary=compute_bound_workload --cpu-type=O3 --issue-width=4 --commit-width=4 --ROB-entries=192 --l1i-size=32kB --l1i-assoc=8 --l1d-size=32kB --l1d-assoc=8 --l2-size=256kB --l2-assoc=16 --l1i-replace-policy=LRU --l1d-replace-policy=LRU --l2-replace-policy=LRU --branch-predictor-enable --branch-predictor-type=TournamentBP --mem-dep-pred-enable --l1d-prefetcher-type=StridePrefetcher --l2-prefetcher-type=TaggedPrefetcher

info: Standard input is not a terminal, disabling listeners.
src/sim/simulate.cc:199: info: Entering event queue @ 0.  Starting simulation...
src/sim/syscall_emul.cc:97: warn: ignoring syscall set_robust_list(...)
      (further warnings will be suppressed)
src/sim/syscall_emul.hh:1117: warn: readlink() called on '/proc/self/exe' may yield unexpected results in various settings.
      Returning '/home/arpit/Desktop/iitd/sem_7/COL718/projects/OoO-and-Speculation/compute_bound_workload'
src/sim/mem_state.cc:448: info: Increasing stack size by one page.
src/sim/syscall_emul.cc:86: warn: ignoring syscall mprotect(...)
Starting compute-bound workload...
Compute-bound workload complete. Final result (to prevent optimization): -47.596219
Exiting @ tick 41404466421 because exiting with last active thread context.
Simulation finished for results/compute_bound_workload/width_4.

-------------------------------------------------
 WORKLOAD: compute_bound_workload
 SAVING TO: results/compute_bound_workload/width_8
 PARAMS: --issue-width=8 --commit-width=8 --ROB-entries=192 --l1i-size=32kB --l1i-assoc=8 --l1d-size=32kB --l1d-assoc=8 --l2-size=256kB --l2-assoc=16 --l1i-replace-policy=LRU --l1d-replace-policy=LRU --l2-replace-policy=LRU --branch-predictor-enable --branch-predictor-type=TournamentBP --mem-dep-pred-enable --l1d-prefetcher-type=StridePrefetcher --l2-prefetcher-type=TaggedPrefetcher
-------------------------------------------------
warn: Base 10 memory/cache size 32kB will be cast to base 2 size 32KiB.
warn: Base 10 memory/cache size 32kB will be cast to base 2 size 32KiB.
warn: Base 10 memory/cache size 256kB will be cast to base 2 size 256KiB.
Global frequency set at 1000000000000 ticks per second
src/arch/riscv/isa.cc:279: info: RVV enabled, VLEN = 256 bits, ELEN = 64 bits
src/base/statistics.hh:279: warn: One of the stats is a legacy stat. Legacy stat is a stat that does not belong to any statistics::Group. Legacy stat is deprecated.
src/base/remote_gdb.cc:418: warn: Sockets disabled, not accepting gdb connections
gem5 Simulator System.  https://www.gem5.org
gem5 is copyrighted software; use the --copyright option for details.

gem5 version 24.1.0.3
gem5 compiled Sep 28 2025 00:02:15
gem5 started Oct  1 2025 13:22:29
gem5 executing on arpit-linux, pid 20782
command line: ../gem5/build/RISCV/gem5.opt --outdir=results/compute_bound_workload/width_8 test.py --isa=RISCV --binary=compute_bound_workload --cpu-type=O3 --issue-width=8 --commit-width=8 --ROB-entries=192 --l1i-size=32kB --l1i-assoc=8 --l1d-size=32kB --l1d-assoc=8 --l2-size=256kB --l2-assoc=16 --l1i-replace-policy=LRU --l1d-replace-policy=LRU --l2-replace-policy=LRU --branch-predictor-enable --branch-predictor-type=TournamentBP --mem-dep-pred-enable --l1d-prefetcher-type=StridePrefetcher --l2-prefetcher-type=TaggedPrefetcher

info: Standard input is not a terminal, disabling listeners.
src/sim/simulate.cc:199: info: Entering event queue @ 0.  Starting simulation...
src/sim/syscall_emul.cc:97: warn: ignoring syscall set_robust_list(...)
      (further warnings will be suppressed)
src/sim/syscall_emul.hh:1117: warn: readlink() called on '/proc/self/exe' may yield unexpected results in various settings.
      Returning '/home/arpit/Desktop/iitd/sem_7/COL718/projects/OoO-and-Speculation/compute_bound_workload'
src/sim/mem_state.cc:448: info: Increasing stack size by one page.
src/sim/syscall_emul.cc:86: warn: ignoring syscall mprotect(...)
Starting compute-bound workload...
Compute-bound workload complete. Final result (to prevent optimization): -47.596219
Exiting @ tick 41404449105 because exiting with last active thread context.
Simulation finished for results/compute_bound_workload/width_8.

-------------------------------------------------
 WORKLOAD: compute_bound_workload
 SAVING TO: results/compute_bound_workload/l1_16kB_2way
 PARAMS: --l1i-size=16kB --l1d-size=16kB --l1i-assoc=2 --l1d-assoc=2 --ROB-entries=192 --issue-width=4 --commit-width=4 --l2-size=256kB --l2-assoc=16 --l1i-replace-policy=LRU --l1d-replace-policy=LRU --l2-replace-policy=LRU --branch-predictor-enable --branch-predictor-type=TournamentBP --mem-dep-pred-enable --l1d-prefetcher-type=StridePrefetcher --l2-prefetcher-type=TaggedPrefetcher
-------------------------------------------------
warn: Base 10 memory/cache size 16kB will be cast to base 2 size 16KiB.
warn: Base 10 memory/cache size 16kB will be cast to base 2 size 16KiB.
warn: Base 10 memory/cache size 256kB will be cast to base 2 size 256KiB.
Global frequency set at 1000000000000 ticks per second
src/arch/riscv/isa.cc:279: info: RVV enabled, VLEN = 256 bits, ELEN = 64 bits
src/base/statistics.hh:279: warn: One of the stats is a legacy stat. Legacy stat is a stat that does not belong to any statistics::Group. Legacy stat is deprecated.
src/base/remote_gdb.cc:418: warn: Sockets disabled, not accepting gdb connections
gem5 Simulator System.  https://www.gem5.org
gem5 is copyrighted software; use the --copyright option for details.

gem5 version 24.1.0.3
gem5 compiled Sep 28 2025 00:02:15
gem5 started Oct  1 2025 13:26:10
gem5 executing on arpit-linux, pid 21104
command line: ../gem5/build/RISCV/gem5.opt --outdir=results/compute_bound_workload/l1_16kB_2way test.py --isa=RISCV --binary=compute_bound_workload --cpu-type=O3 --l1i-size=16kB --l1d-size=16kB --l1i-assoc=2 --l1d-assoc=2 --ROB-entries=192 --issue-width=4 --commit-width=4 --l2-size=256kB --l2-assoc=16 --l1i-replace-policy=LRU --l1d-replace-policy=LRU --l2-replace-policy=LRU --branch-predictor-enable --branch-predictor-type=TournamentBP --mem-dep-pred-enable --l1d-prefetcher-type=StridePrefetcher --l2-prefetcher-type=TaggedPrefetcher

info: Standard input is not a terminal, disabling listeners.
src/sim/simulate.cc:199: info: Entering event queue @ 0.  Starting simulation...
src/sim/syscall_emul.cc:97: warn: ignoring syscall set_robust_list(...)
      (further warnings will be suppressed)
src/sim/syscall_emul.hh:1117: warn: readlink() called on '/proc/self/exe' may yield unexpected results in various settings.
      Returning '/home/arpit/Desktop/iitd/sem_7/COL718/projects/OoO-and-Speculation/compute_bound_workload'
src/sim/mem_state.cc:448: info: Increasing stack size by one page.
src/sim/syscall_emul.cc:86: warn: ignoring syscall mprotect(...)
Starting compute-bound workload...
Compute-bound workload complete. Final result (to prevent optimization): -47.596219
Exiting @ tick 41405159394 because exiting with last active thread context.
Simulation finished for results/compute_bound_workload/l1_16kB_2way.

-------------------------------------------------
 WORKLOAD: compute_bound_workload
 SAVING TO: results/compute_bound_workload/l1_16kB_4way
 PARAMS: --l1i-size=16kB --l1d-size=16kB --l1i-assoc=4 --l1d-assoc=4 --ROB-entries=192 --issue-width=4 --commit-width=4 --l2-size=256kB --l2-assoc=16 --l1i-replace-policy=LRU --l1d-replace-policy=LRU --l2-replace-policy=LRU --branch-predictor-enable --branch-predictor-type=TournamentBP --mem-dep-pred-enable --l1d-prefetcher-type=StridePrefetcher --l2-prefetcher-type=TaggedPrefetcher
-------------------------------------------------
warn: Base 10 memory/cache size 16kB will be cast to base 2 size 16KiB.
warn: Base 10 memory/cache size 16kB will be cast to base 2 size 16KiB.
warn: Base 10 memory/cache size 256kB will be cast to base 2 size 256KiB.
Global frequency set at 1000000000000 ticks per second
src/arch/riscv/isa.cc:279: info: RVV enabled, VLEN = 256 bits, ELEN = 64 bits
src/base/statistics.hh:279: warn: One of the stats is a legacy stat. Legacy stat is a stat that does not belong to any statistics::Group. Legacy stat is deprecated.
src/base/remote_gdb.cc:418: warn: Sockets disabled, not accepting gdb connections
gem5 Simulator System.  https://www.gem5.org
gem5 is copyrighted software; use the --copyright option for details.

gem5 version 24.1.0.3
gem5 compiled Sep 28 2025 00:02:15
gem5 started Oct  1 2025 13:29:50
gem5 executing on arpit-linux, pid 21415
command line: ../gem5/build/RISCV/gem5.opt --outdir=results/compute_bound_workload/l1_16kB_4way test.py --isa=RISCV --binary=compute_bound_workload --cpu-type=O3 --l1i-size=16kB --l1d-size=16kB --l1i-assoc=4 --l1d-assoc=4 --ROB-entries=192 --issue-width=4 --commit-width=4 --l2-size=256kB --l2-assoc=16 --l1i-replace-policy=LRU --l1d-replace-policy=LRU --l2-replace-policy=LRU --branch-predictor-enable --branch-predictor-type=TournamentBP --mem-dep-pred-enable --l1d-prefetcher-type=StridePrefetcher --l2-prefetcher-type=TaggedPrefetcher

info: Standard input is not a terminal, disabling listeners.
src/sim/simulate.cc:199: info: Entering event queue @ 0.  Starting simulation...
src/sim/syscall_emul.cc:97: warn: ignoring syscall set_robust_list(...)
      (further warnings will be suppressed)
src/sim/syscall_emul.hh:1117: warn: readlink() called on '/proc/self/exe' may yield unexpected results in various settings.
      Returning '/home/arpit/Desktop/iitd/sem_7/COL718/projects/OoO-and-Speculation/compute_bound_workload'
src/sim/mem_state.cc:448: info: Increasing stack size by one page.
src/sim/syscall_emul.cc:86: warn: ignoring syscall mprotect(...)
Starting compute-bound workload...
Compute-bound workload complete. Final result (to prevent optimization): -47.596219
Exiting @ tick 41404402818 because exiting with last active thread context.
Simulation finished for results/compute_bound_workload/l1_16kB_4way.

-------------------------------------------------
 WORKLOAD: compute_bound_workload
 SAVING TO: results/compute_bound_workload/l1_16kB_8way
 PARAMS: --l1i-size=16kB --l1d-size=16kB --l1i-assoc=8 --l1d-assoc=8 --ROB-entries=192 --issue-width=4 --commit-width=4 --l2-size=256kB --l2-assoc=16 --l1i-replace-policy=LRU --l1d-replace-policy=LRU --l2-replace-policy=LRU --branch-predictor-enable --branch-predictor-type=TournamentBP --mem-dep-pred-enable --l1d-prefetcher-type=StridePrefetcher --l2-prefetcher-type=TaggedPrefetcher
-------------------------------------------------
warn: Base 10 memory/cache size 16kB will be cast to base 2 size 16KiB.
warn: Base 10 memory/cache size 16kB will be cast to base 2 size 16KiB.
warn: Base 10 memory/cache size 256kB will be cast to base 2 size 256KiB.
Global frequency set at 1000000000000 ticks per second
src/arch/riscv/isa.cc:279: info: RVV enabled, VLEN = 256 bits, ELEN = 64 bits
src/base/statistics.hh:279: warn: One of the stats is a legacy stat. Legacy stat is a stat that does not belong to any statistics::Group. Legacy stat is deprecated.
src/base/remote_gdb.cc:418: warn: Sockets disabled, not accepting gdb connections
gem5 Simulator System.  https://www.gem5.org
gem5 is copyrighted software; use the --copyright option for details.

gem5 version 24.1.0.3
gem5 compiled Sep 28 2025 00:02:15
gem5 started Oct  1 2025 13:33:34
gem5 executing on arpit-linux, pid 21745
command line: ../gem5/build/RISCV/gem5.opt --outdir=results/compute_bound_workload/l1_16kB_8way test.py --isa=RISCV --binary=compute_bound_workload --cpu-type=O3 --l1i-size=16kB --l1d-size=16kB --l1i-assoc=8 --l1d-assoc=8 --ROB-entries=192 --issue-width=4 --commit-width=4 --l2-size=256kB --l2-assoc=16 --l1i-replace-policy=LRU --l1d-replace-policy=LRU --l2-replace-policy=LRU --branch-predictor-enable --branch-predictor-type=TournamentBP --mem-dep-pred-enable --l1d-prefetcher-type=StridePrefetcher --l2-prefetcher-type=TaggedPrefetcher

info: Standard input is not a terminal, disabling listeners.
src/sim/simulate.cc:199: info: Entering event queue @ 0.  Starting simulation...
src/sim/syscall_emul.cc:97: warn: ignoring syscall set_robust_list(...)
      (further warnings will be suppressed)
src/sim/syscall_emul.hh:1117: warn: readlink() called on '/proc/self/exe' may yield unexpected results in various settings.
      Returning '/home/arpit/Desktop/iitd/sem_7/COL718/projects/OoO-and-Speculation/compute_bound_workload'
src/sim/mem_state.cc:448: info: Increasing stack size by one page.
src/sim/syscall_emul.cc:86: warn: ignoring syscall mprotect(...)
Starting compute-bound workload...
Compute-bound workload complete. Final result (to prevent optimization): -47.596219
Exiting @ tick 41404518036 because exiting with last active thread context.
Simulation finished for results/compute_bound_workload/l1_16kB_8way.

-------------------------------------------------
 WORKLOAD: compute_bound_workload
 SAVING TO: results/compute_bound_workload/l1_32kB_2way
 PARAMS: --l1i-size=32kB --l1d-size=32kB --l1i-assoc=2 --l1d-assoc=2 --ROB-entries=192 --issue-width=4 --commit-width=4 --l2-size=256kB --l2-assoc=16 --l1i-replace-policy=LRU --l1d-replace-policy=LRU --l2-replace-policy=LRU --branch-predictor-enable --branch-predictor-type=TournamentBP --mem-dep-pred-enable --l1d-prefetcher-type=StridePrefetcher --l2-prefetcher-type=TaggedPrefetcher
-------------------------------------------------
warn: Base 10 memory/cache size 32kB will be cast to base 2 size 32KiB.
warn: Base 10 memory/cache size 32kB will be cast to base 2 size 32KiB.
warn: Base 10 memory/cache size 256kB will be cast to base 2 size 256KiB.
Global frequency set at 1000000000000 ticks per second
src/arch/riscv/isa.cc:279: info: RVV enabled, VLEN = 256 bits, ELEN = 64 bits
src/base/statistics.hh:279: warn: One of the stats is a legacy stat. Legacy stat is a stat that does not belong to any statistics::Group. Legacy stat is deprecated.
src/base/remote_gdb.cc:418: warn: Sockets disabled, not accepting gdb connections
gem5 Simulator System.  https://www.gem5.org
gem5 is copyrighted software; use the --copyright option for details.

gem5 version 24.1.0.3
gem5 compiled Sep 28 2025 00:02:15
gem5 started Oct  1 2025 13:37:15
gem5 executing on arpit-linux, pid 22008
command line: ../gem5/build/RISCV/gem5.opt --outdir=results/compute_bound_workload/l1_32kB_2way test.py --isa=RISCV --binary=compute_bound_workload --cpu-type=O3 --l1i-size=32kB --l1d-size=32kB --l1i-assoc=2 --l1d-assoc=2 --ROB-entries=192 --issue-width=4 --commit-width=4 --l2-size=256kB --l2-assoc=16 --l1i-replace-policy=LRU --l1d-replace-policy=LRU --l2-replace-policy=LRU --branch-predictor-enable --branch-predictor-type=TournamentBP --mem-dep-pred-enable --l1d-prefetcher-type=StridePrefetcher --l2-prefetcher-type=TaggedPrefetcher

info: Standard input is not a terminal, disabling listeners.
src/sim/simulate.cc:199: info: Entering event queue @ 0.  Starting simulation...
src/sim/syscall_emul.cc:97: warn: ignoring syscall set_robust_list(...)
      (further warnings will be suppressed)
src/sim/syscall_emul.hh:1117: warn: readlink() called on '/proc/self/exe' may yield unexpected results in various settings.
      Returning '/home/arpit/Desktop/iitd/sem_7/COL718/projects/OoO-and-Speculation/compute_bound_workload'
src/sim/mem_state.cc:448: info: Increasing stack size by one page.
src/sim/syscall_emul.cc:86: warn: ignoring syscall mprotect(...)
Starting compute-bound workload...
Compute-bound workload complete. Final result (to prevent optimization): -47.596219
Exiting @ tick 41404706181 because exiting with last active thread context.
Simulation finished for results/compute_bound_workload/l1_32kB_2way.

-------------------------------------------------
 WORKLOAD: compute_bound_workload
 SAVING TO: results/compute_bound_workload/l1_32kB_4way
 PARAMS: --l1i-size=32kB --l1d-size=32kB --l1i-assoc=4 --l1d-assoc=4 --ROB-entries=192 --issue-width=4 --commit-width=4 --l2-size=256kB --l2-assoc=16 --l1i-replace-policy=LRU --l1d-replace-policy=LRU --l2-replace-policy=LRU --branch-predictor-enable --branch-predictor-type=TournamentBP --mem-dep-pred-enable --l1d-prefetcher-type=StridePrefetcher --l2-prefetcher-type=TaggedPrefetcher
-------------------------------------------------
warn: Base 10 memory/cache size 32kB will be cast to base 2 size 32KiB.
warn: Base 10 memory/cache size 32kB will be cast to base 2 size 32KiB.
warn: Base 10 memory/cache size 256kB will be cast to base 2 size 256KiB.
Global frequency set at 1000000000000 ticks per second
src/arch/riscv/isa.cc:279: info: RVV enabled, VLEN = 256 bits, ELEN = 64 bits
src/base/statistics.hh:279: warn: One of the stats is a legacy stat. Legacy stat is a stat that does not belong to any statistics::Group. Legacy stat is deprecated.
src/base/remote_gdb.cc:418: warn: Sockets disabled, not accepting gdb connections
gem5 Simulator System.  https://www.gem5.org
gem5 is copyrighted software; use the --copyright option for details.

gem5 version 24.1.0.3
gem5 compiled Sep 28 2025 00:02:15
gem5 started Oct  1 2025 13:40:58
gem5 executing on arpit-linux, pid 22326
command line: ../gem5/build/RISCV/gem5.opt --outdir=results/compute_bound_workload/l1_32kB_4way test.py --isa=RISCV --binary=compute_bound_workload --cpu-type=O3 --l1i-size=32kB --l1d-size=32kB --l1i-assoc=4 --l1d-assoc=4 --ROB-entries=192 --issue-width=4 --commit-width=4 --l2-size=256kB --l2-assoc=16 --l1i-replace-policy=LRU --l1d-replace-policy=LRU --l2-replace-policy=LRU --branch-predictor-enable --branch-predictor-type=TournamentBP --mem-dep-pred-enable --l1d-prefetcher-type=StridePrefetcher --l2-prefetcher-type=TaggedPrefetcher

info: Standard input is not a terminal, disabling listeners.
src/sim/simulate.cc:199: info: Entering event queue @ 0.  Starting simulation...
src/sim/syscall_emul.cc:97: warn: ignoring syscall set_robust_list(...)
      (further warnings will be suppressed)
src/sim/syscall_emul.hh:1117: warn: readlink() called on '/proc/self/exe' may yield unexpected results in various settings.
      Returning '/home/arpit/Desktop/iitd/sem_7/COL718/projects/OoO-and-Speculation/compute_bound_workload'
src/sim/mem_state.cc:448: info: Increasing stack size by one page.
src/sim/syscall_emul.cc:86: warn: ignoring syscall mprotect(...)
Starting compute-bound workload...
Compute-bound workload complete. Final result (to prevent optimization): -47.596219
Exiting @ tick 41404466421 because exiting with last active thread context.
Simulation finished for results/compute_bound_workload/l1_32kB_4way.

-------------------------------------------------
 WORKLOAD: compute_bound_workload
 SAVING TO: results/compute_bound_workload/l1_32kB_8way
 PARAMS: --l1i-size=32kB --l1d-size=32kB --l1i-assoc=8 --l1d-assoc=8 --ROB-entries=192 --issue-width=4 --commit-width=4 --l2-size=256kB --l2-assoc=16 --l1i-replace-policy=LRU --l1d-replace-policy=LRU --l2-replace-policy=LRU --branch-predictor-enable --branch-predictor-type=TournamentBP --mem-dep-pred-enable --l1d-prefetcher-type=StridePrefetcher --l2-prefetcher-type=TaggedPrefetcher
-------------------------------------------------
warn: Base 10 memory/cache size 32kB will be cast to base 2 size 32KiB.
warn: Base 10 memory/cache size 32kB will be cast to base 2 size 32KiB.
warn: Base 10 memory/cache size 256kB will be cast to base 2 size 256KiB.
Global frequency set at 1000000000000 ticks per second
src/arch/riscv/isa.cc:279: info: RVV enabled, VLEN = 256 bits, ELEN = 64 bits
src/base/statistics.hh:279: warn: One of the stats is a legacy stat. Legacy stat is a stat that does not belong to any statistics::Group. Legacy stat is deprecated.
src/base/remote_gdb.cc:418: warn: Sockets disabled, not accepting gdb connections
gem5 Simulator System.  https://www.gem5.org
gem5 is copyrighted software; use the --copyright option for details.

gem5 version 24.1.0.3
gem5 compiled Sep 28 2025 00:02:15
gem5 started Oct  1 2025 13:44:39
gem5 executing on arpit-linux, pid 22639
command line: ../gem5/build/RISCV/gem5.opt --outdir=results/compute_bound_workload/l1_32kB_8way test.py --isa=RISCV --binary=compute_bound_workload --cpu-type=O3 --l1i-size=32kB --l1d-size=32kB --l1i-assoc=8 --l1d-assoc=8 --ROB-entries=192 --issue-width=4 --commit-width=4 --l2-size=256kB --l2-assoc=16 --l1i-replace-policy=LRU --l1d-replace-policy=LRU --l2-replace-policy=LRU --branch-predictor-enable --branch-predictor-type=TournamentBP --mem-dep-pred-enable --l1d-prefetcher-type=StridePrefetcher --l2-prefetcher-type=TaggedPrefetcher

info: Standard input is not a terminal, disabling listeners.
src/sim/simulate.cc:199: info: Entering event queue @ 0.  Starting simulation...
src/sim/syscall_emul.cc:97: warn: ignoring syscall set_robust_list(...)
      (further warnings will be suppressed)
src/sim/syscall_emul.hh:1117: warn: readlink() called on '/proc/self/exe' may yield unexpected results in various settings.
      Returning '/home/arpit/Desktop/iitd/sem_7/COL718/projects/OoO-and-Speculation/compute_bound_workload'
src/sim/mem_state.cc:448: info: Increasing stack size by one page.
src/sim/syscall_emul.cc:86: warn: ignoring syscall mprotect(...)
Starting compute-bound workload...
Compute-bound workload complete. Final result (to prevent optimization): -47.596219
Exiting @ tick 41404466421 because exiting with last active thread context.
Simulation finished for results/compute_bound_workload/l1_32kB_8way.

-------------------------------------------------
 WORKLOAD: compute_bound_workload
 SAVING TO: results/compute_bound_workload/l1_64kB_2way
 PARAMS: --l1i-size=64kB --l1d-size=64kB --l1i-assoc=2 --l1d-assoc=2 --ROB-entries=192 --issue-width=4 --commit-width=4 --l2-size=256kB --l2-assoc=16 --l1i-replace-policy=LRU --l1d-replace-policy=LRU --l2-replace-policy=LRU --branch-predictor-enable --branch-predictor-type=TournamentBP --mem-dep-pred-enable --l1d-prefetcher-type=StridePrefetcher --l2-prefetcher-type=TaggedPrefetcher
-------------------------------------------------
warn: Base 10 memory/cache size 64kB will be cast to base 2 size 64KiB.
warn: Base 10 memory/cache size 64kB will be cast to base 2 size 64KiB.
warn: Base 10 memory/cache size 256kB will be cast to base 2 size 256KiB.
Global frequency set at 1000000000000 ticks per second
src/arch/riscv/isa.cc:279: info: RVV enabled, VLEN = 256 bits, ELEN = 64 bits
src/base/statistics.hh:279: warn: One of the stats is a legacy stat. Legacy stat is a stat that does not belong to any statistics::Group. Legacy stat is deprecated.
src/base/remote_gdb.cc:418: warn: Sockets disabled, not accepting gdb connections
gem5 Simulator System.  https://www.gem5.org
gem5 is copyrighted software; use the --copyright option for details.

gem5 version 24.1.0.3
gem5 compiled Sep 28 2025 00:02:15
gem5 started Oct  1 2025 13:48:21
gem5 executing on arpit-linux, pid 22960
command line: ../gem5/build/RISCV/gem5.opt --outdir=results/compute_bound_workload/l1_64kB_2way test.py --isa=RISCV --binary=compute_bound_workload --cpu-type=O3 --l1i-size=64kB --l1d-size=64kB --l1i-assoc=2 --l1d-assoc=2 --ROB-entries=192 --issue-width=4 --commit-width=4 --l2-size=256kB --l2-assoc=16 --l1i-replace-policy=LRU --l1d-replace-policy=LRU --l2-replace-policy=LRU --branch-predictor-enable --branch-predictor-type=TournamentBP --mem-dep-pred-enable --l1d-prefetcher-type=StridePrefetcher --l2-prefetcher-type=TaggedPrefetcher

info: Standard input is not a terminal, disabling listeners.
src/sim/simulate.cc:199: info: Entering event queue @ 0.  Starting simulation...
src/sim/syscall_emul.cc:97: warn: ignoring syscall set_robust_list(...)
      (further warnings will be suppressed)
src/sim/syscall_emul.hh:1117: warn: readlink() called on '/proc/self/exe' may yield unexpected results in various settings.
      Returning '/home/arpit/Desktop/iitd/sem_7/COL718/projects/OoO-and-Speculation/compute_bound_workload'
src/sim/mem_state.cc:448: info: Increasing stack size by one page.
src/sim/syscall_emul.cc:86: warn: ignoring syscall mprotect(...)
Starting compute-bound workload...
Compute-bound workload complete. Final result (to prevent optimization): -47.596219
Exiting @ tick 41404468086 because exiting with last active thread context.
Simulation finished for results/compute_bound_workload/l1_64kB_2way.

-------------------------------------------------
 WORKLOAD: compute_bound_workload
 SAVING TO: results/compute_bound_workload/l1_64kB_4way
 PARAMS: --l1i-size=64kB --l1d-size=64kB --l1i-assoc=4 --l1d-assoc=4 --ROB-entries=192 --issue-width=4 --commit-width=4 --l2-size=256kB --l2-assoc=16 --l1i-replace-policy=LRU --l1d-replace-policy=LRU --l2-replace-policy=LRU --branch-predictor-enable --branch-predictor-type=TournamentBP --mem-dep-pred-enable --l1d-prefetcher-type=StridePrefetcher --l2-prefetcher-type=TaggedPrefetcher
-------------------------------------------------
warn: Base 10 memory/cache size 64kB will be cast to base 2 size 64KiB.
warn: Base 10 memory/cache size 64kB will be cast to base 2 size 64KiB.
warn: Base 10 memory/cache size 256kB will be cast to base 2 size 256KiB.
Global frequency set at 1000000000000 ticks per second
src/arch/riscv/isa.cc:279: info: RVV enabled, VLEN = 256 bits, ELEN = 64 bits
src/base/statistics.hh:279: warn: One of the stats is a legacy stat. Legacy stat is a stat that does not belong to any statistics::Group. Legacy stat is deprecated.
src/base/remote_gdb.cc:418: warn: Sockets disabled, not accepting gdb connections
gem5 Simulator System.  https://www.gem5.org
gem5 is copyrighted software; use the --copyright option for details.

gem5 version 24.1.0.3
gem5 compiled Sep 28 2025 00:02:15
gem5 started Oct  1 2025 13:52:03
gem5 executing on arpit-linux, pid 23244
command line: ../gem5/build/RISCV/gem5.opt --outdir=results/compute_bound_workload/l1_64kB_4way test.py --isa=RISCV --binary=compute_bound_workload --cpu-type=O3 --l1i-size=64kB --l1d-size=64kB --l1i-assoc=4 --l1d-assoc=4 --ROB-entries=192 --issue-width=4 --commit-width=4 --l2-size=256kB --l2-assoc=16 --l1i-replace-policy=LRU --l1d-replace-policy=LRU --l2-replace-policy=LRU --branch-predictor-enable --branch-predictor-type=TournamentBP --mem-dep-pred-enable --l1d-prefetcher-type=StridePrefetcher --l2-prefetcher-type=TaggedPrefetcher

info: Standard input is not a terminal, disabling listeners.
src/sim/simulate.cc:199: info: Entering event queue @ 0.  Starting simulation...
src/sim/syscall_emul.cc:97: warn: ignoring syscall set_robust_list(...)
      (further warnings will be suppressed)
src/sim/syscall_emul.hh:1117: warn: readlink() called on '/proc/self/exe' may yield unexpected results in various settings.
      Returning '/home/arpit/Desktop/iitd/sem_7/COL718/projects/OoO-and-Speculation/compute_bound_workload'
src/sim/mem_state.cc:448: info: Increasing stack size by one page.
src/sim/syscall_emul.cc:86: warn: ignoring syscall mprotect(...)
Starting compute-bound workload...
Compute-bound workload complete. Final result (to prevent optimization): -47.596219
Exiting @ tick 41404269618 because exiting with last active thread context.
Simulation finished for results/compute_bound_workload/l1_64kB_4way.

-------------------------------------------------
 WORKLOAD: compute_bound_workload
 SAVING TO: results/compute_bound_workload/l1_64kB_8way
 PARAMS: --l1i-size=64kB --l1d-size=64kB --l1i-assoc=8 --l1d-assoc=8 --ROB-entries=192 --issue-width=4 --commit-width=4 --l2-size=256kB --l2-assoc=16 --l1i-replace-policy=LRU --l1d-replace-policy=LRU --l2-replace-policy=LRU --branch-predictor-enable --branch-predictor-type=TournamentBP --mem-dep-pred-enable --l1d-prefetcher-type=StridePrefetcher --l2-prefetcher-type=TaggedPrefetcher
-------------------------------------------------
warn: Base 10 memory/cache size 64kB will be cast to base 2 size 64KiB.
warn: Base 10 memory/cache size 64kB will be cast to base 2 size 64KiB.
warn: Base 10 memory/cache size 256kB will be cast to base 2 size 256KiB.
Global frequency set at 1000000000000 ticks per second
src/arch/riscv/isa.cc:279: info: RVV enabled, VLEN = 256 bits, ELEN = 64 bits
src/base/statistics.hh:279: warn: One of the stats is a legacy stat. Legacy stat is a stat that does not belong to any statistics::Group. Legacy stat is deprecated.
src/base/remote_gdb.cc:418: warn: Sockets disabled, not accepting gdb connections
gem5 Simulator System.  https://www.gem5.org
gem5 is copyrighted software; use the --copyright option for details.

gem5 version 24.1.0.3
gem5 compiled Sep 28 2025 00:02:15
gem5 started Oct  1 2025 13:55:44
gem5 executing on arpit-linux, pid 23570
command line: ../gem5/build/RISCV/gem5.opt --outdir=results/compute_bound_workload/l1_64kB_8way test.py --isa=RISCV --binary=compute_bound_workload --cpu-type=O3 --l1i-size=64kB --l1d-size=64kB --l1i-assoc=8 --l1d-assoc=8 --ROB-entries=192 --issue-width=4 --commit-width=4 --l2-size=256kB --l2-assoc=16 --l1i-replace-policy=LRU --l1d-replace-policy=LRU --l2-replace-policy=LRU --branch-predictor-enable --branch-predictor-type=TournamentBP --mem-dep-pred-enable --l1d-prefetcher-type=StridePrefetcher --l2-prefetcher-type=TaggedPrefetcher

info: Standard input is not a terminal, disabling listeners.
src/sim/simulate.cc:199: info: Entering event queue @ 0.  Starting simulation...
src/sim/syscall_emul.cc:97: warn: ignoring syscall set_robust_list(...)
      (further warnings will be suppressed)
src/sim/syscall_emul.hh:1117: warn: readlink() called on '/proc/self/exe' may yield unexpected results in various settings.
      Returning '/home/arpit/Desktop/iitd/sem_7/COL718/projects/OoO-and-Speculation/compute_bound_workload'
src/sim/mem_state.cc:448: info: Increasing stack size by one page.
src/sim/syscall_emul.cc:86: warn: ignoring syscall mprotect(...)
Starting compute-bound workload...
Compute-bound workload complete. Final result (to prevent optimization): -47.596219
Exiting @ tick 41404306914 because exiting with last active thread context.
Simulation finished for results/compute_bound_workload/l1_64kB_8way.

-------------------------------------------------
 WORKLOAD: compute_bound_workload
 SAVING TO: results/compute_bound_workload/l2_128kB_8way
 PARAMS: --l2-size=128kB --l2-assoc=8 --ROB-entries=192 --issue-width=4 --commit-width=4 --l1i-size=32kB --l1i-assoc=8 --l1d-size=32kB --l1d-assoc=8 --l1i-replace-policy=LRU --l1d-replace-policy=LRU --l2-replace-policy=LRU --branch-predictor-enable --branch-predictor-type=TournamentBP --mem-dep-pred-enable --l1d-prefetcher-type=StridePrefetcher --l2-prefetcher-type=TaggedPrefetcher
-------------------------------------------------
warn: Base 10 memory/cache size 32kB will be cast to base 2 size 32KiB.
warn: Base 10 memory/cache size 32kB will be cast to base 2 size 32KiB.
warn: Base 10 memory/cache size 128kB will be cast to base 2 size 128KiB.
Global frequency set at 1000000000000 ticks per second
src/arch/riscv/isa.cc:279: info: RVV enabled, VLEN = 256 bits, ELEN = 64 bits
src/base/statistics.hh:279: warn: One of the stats is a legacy stat. Legacy stat is a stat that does not belong to any statistics::Group. Legacy stat is deprecated.
src/base/remote_gdb.cc:418: warn: Sockets disabled, not accepting gdb connections
gem5 Simulator System.  https://www.gem5.org
gem5 is copyrighted software; use the --copyright option for details.

gem5 version 24.1.0.3
gem5 compiled Sep 28 2025 00:02:15
gem5 started Oct  1 2025 13:59:26
gem5 executing on arpit-linux, pid 23877
command line: ../gem5/build/RISCV/gem5.opt --outdir=results/compute_bound_workload/l2_128kB_8way test.py --isa=RISCV --binary=compute_bound_workload --cpu-type=O3 --l2-size=128kB --l2-assoc=8 --ROB-entries=192 --issue-width=4 --commit-width=4 --l1i-size=32kB --l1i-assoc=8 --l1d-size=32kB --l1d-assoc=8 --l1i-replace-policy=LRU --l1d-replace-policy=LRU --l2-replace-policy=LRU --branch-predictor-enable --branch-predictor-type=TournamentBP --mem-dep-pred-enable --l1d-prefetcher-type=StridePrefetcher --l2-prefetcher-type=TaggedPrefetcher

info: Standard input is not a terminal, disabling listeners.
src/sim/simulate.cc:199: info: Entering event queue @ 0.  Starting simulation...
src/sim/syscall_emul.cc:97: warn: ignoring syscall set_robust_list(...)
      (further warnings will be suppressed)
src/sim/syscall_emul.hh:1117: warn: readlink() called on '/proc/self/exe' may yield unexpected results in various settings.
      Returning '/home/arpit/Desktop/iitd/sem_7/COL718/projects/OoO-and-Speculation/compute_bound_workload'
src/sim/mem_state.cc:448: info: Increasing stack size by one page.
src/sim/syscall_emul.cc:86: warn: ignoring syscall mprotect(...)
Starting compute-bound workload...
Compute-bound workload complete. Final result (to prevent optimization): -47.596219
Exiting @ tick 41404532355 because exiting with last active thread context.
Simulation finished for results/compute_bound_workload/l2_128kB_8way.

-------------------------------------------------
 WORKLOAD: compute_bound_workload
 SAVING TO: results/compute_bound_workload/l2_128kB_16way
 PARAMS: --l2-size=128kB --l2-assoc=16 --ROB-entries=192 --issue-width=4 --commit-width=4 --l1i-size=32kB --l1i-assoc=8 --l1d-size=32kB --l1d-assoc=8 --l1i-replace-policy=LRU --l1d-replace-policy=LRU --l2-replace-policy=LRU --branch-predictor-enable --branch-predictor-type=TournamentBP --mem-dep-pred-enable --l1d-prefetcher-type=StridePrefetcher --l2-prefetcher-type=TaggedPrefetcher
-------------------------------------------------
warn: Base 10 memory/cache size 32kB will be cast to base 2 size 32KiB.
warn: Base 10 memory/cache size 32kB will be cast to base 2 size 32KiB.
warn: Base 10 memory/cache size 128kB will be cast to base 2 size 128KiB.
Global frequency set at 1000000000000 ticks per second
src/arch/riscv/isa.cc:279: info: RVV enabled, VLEN = 256 bits, ELEN = 64 bits
src/base/statistics.hh:279: warn: One of the stats is a legacy stat. Legacy stat is a stat that does not belong to any statistics::Group. Legacy stat is deprecated.
src/base/remote_gdb.cc:418: warn: Sockets disabled, not accepting gdb connections
gem5 Simulator System.  https://www.gem5.org
gem5 is copyrighted software; use the --copyright option for details.

gem5 version 24.1.0.3
gem5 compiled Sep 28 2025 00:02:15
gem5 started Oct  1 2025 14:03:06
gem5 executing on arpit-linux, pid 24130
command line: ../gem5/build/RISCV/gem5.opt --outdir=results/compute_bound_workload/l2_128kB_16way test.py --isa=RISCV --binary=compute_bound_workload --cpu-type=O3 --l2-size=128kB --l2-assoc=16 --ROB-entries=192 --issue-width=4 --commit-width=4 --l1i-size=32kB --l1i-assoc=8 --l1d-size=32kB --l1d-assoc=8 --l1i-replace-policy=LRU --l1d-replace-policy=LRU --l2-replace-policy=LRU --branch-predictor-enable --branch-predictor-type=TournamentBP --mem-dep-pred-enable --l1d-prefetcher-type=StridePrefetcher --l2-prefetcher-type=TaggedPrefetcher

info: Standard input is not a terminal, disabling listeners.
src/sim/simulate.cc:199: info: Entering event queue @ 0.  Starting simulation...
src/sim/syscall_emul.cc:97: warn: ignoring syscall set_robust_list(...)
      (further warnings will be suppressed)
src/sim/syscall_emul.hh:1117: warn: readlink() called on '/proc/self/exe' may yield unexpected results in various settings.
      Returning '/home/arpit/Desktop/iitd/sem_7/COL718/projects/OoO-and-Speculation/compute_bound_workload'
src/sim/mem_state.cc:448: info: Increasing stack size by one page.
src/sim/syscall_emul.cc:86: warn: ignoring syscall mprotect(...)
Starting compute-bound workload...
Compute-bound workload complete. Final result (to prevent optimization): -47.596219
Exiting @ tick 41404522698 because exiting with last active thread context.
Simulation finished for results/compute_bound_workload/l2_128kB_16way.

-------------------------------------------------
 WORKLOAD: compute_bound_workload
 SAVING TO: results/compute_bound_workload/l2_256kB_8way
 PARAMS: --l2-size=256kB --l2-assoc=8 --ROB-entries=192 --issue-width=4 --commit-width=4 --l1i-size=32kB --l1i-assoc=8 --l1d-size=32kB --l1d-assoc=8 --l1i-replace-policy=LRU --l1d-replace-policy=LRU --l2-replace-policy=LRU --branch-predictor-enable --branch-predictor-type=TournamentBP --mem-dep-pred-enable --l1d-prefetcher-type=StridePrefetcher --l2-prefetcher-type=TaggedPrefetcher
-------------------------------------------------
warn: Base 10 memory/cache size 32kB will be cast to base 2 size 32KiB.
warn: Base 10 memory/cache size 32kB will be cast to base 2 size 32KiB.
warn: Base 10 memory/cache size 256kB will be cast to base 2 size 256KiB.
Global frequency set at 1000000000000 ticks per second
src/arch/riscv/isa.cc:279: info: RVV enabled, VLEN = 256 bits, ELEN = 64 bits
src/base/statistics.hh:279: warn: One of the stats is a legacy stat. Legacy stat is a stat that does not belong to any statistics::Group. Legacy stat is deprecated.
src/base/remote_gdb.cc:418: warn: Sockets disabled, not accepting gdb connections
gem5 Simulator System.  https://www.gem5.org
gem5 is copyrighted software; use the --copyright option for details.

gem5 version 24.1.0.3
gem5 compiled Sep 28 2025 00:02:15
gem5 started Oct  1 2025 14:06:50
gem5 executing on arpit-linux, pid 24445
command line: ../gem5/build/RISCV/gem5.opt --outdir=results/compute_bound_workload/l2_256kB_8way test.py --isa=RISCV --binary=compute_bound_workload --cpu-type=O3 --l2-size=256kB --l2-assoc=8 --ROB-entries=192 --issue-width=4 --commit-width=4 --l1i-size=32kB --l1i-assoc=8 --l1d-size=32kB --l1d-assoc=8 --l1i-replace-policy=LRU --l1d-replace-policy=LRU --l2-replace-policy=LRU --branch-predictor-enable --branch-predictor-type=TournamentBP --mem-dep-pred-enable --l1d-prefetcher-type=StridePrefetcher --l2-prefetcher-type=TaggedPrefetcher

info: Standard input is not a terminal, disabling listeners.
src/sim/simulate.cc:199: info: Entering event queue @ 0.  Starting simulation...
src/sim/syscall_emul.cc:97: warn: ignoring syscall set_robust_list(...)
      (further warnings will be suppressed)
src/sim/syscall_emul.hh:1117: warn: readlink() called on '/proc/self/exe' may yield unexpected results in various settings.
      Returning '/home/arpit/Desktop/iitd/sem_7/COL718/projects/OoO-and-Speculation/compute_bound_workload'
src/sim/mem_state.cc:448: info: Increasing stack size by one page.
src/sim/syscall_emul.cc:86: warn: ignoring syscall mprotect(...)
Starting compute-bound workload...
Compute-bound workload complete. Final result (to prevent optimization): -47.596219
Exiting @ tick 41404466421 because exiting with last active thread context.
Simulation finished for results/compute_bound_workload/l2_256kB_8way.

-------------------------------------------------
 WORKLOAD: compute_bound_workload
 SAVING TO: results/compute_bound_workload/l2_256kB_16way
 PARAMS: --l2-size=256kB --l2-assoc=16 --ROB-entries=192 --issue-width=4 --commit-width=4 --l1i-size=32kB --l1i-assoc=8 --l1d-size=32kB --l1d-assoc=8 --l1i-replace-policy=LRU --l1d-replace-policy=LRU --l2-replace-policy=LRU --branch-predictor-enable --branch-predictor-type=TournamentBP --mem-dep-pred-enable --l1d-prefetcher-type=StridePrefetcher --l2-prefetcher-type=TaggedPrefetcher
-------------------------------------------------
warn: Base 10 memory/cache size 32kB will be cast to base 2 size 32KiB.
warn: Base 10 memory/cache size 32kB will be cast to base 2 size 32KiB.
warn: Base 10 memory/cache size 256kB will be cast to base 2 size 256KiB.
Global frequency set at 1000000000000 ticks per second
src/arch/riscv/isa.cc:279: info: RVV enabled, VLEN = 256 bits, ELEN = 64 bits
src/base/statistics.hh:279: warn: One of the stats is a legacy stat. Legacy stat is a stat that does not belong to any statistics::Group. Legacy stat is deprecated.
src/base/remote_gdb.cc:418: warn: Sockets disabled, not accepting gdb connections
gem5 Simulator System.  https://www.gem5.org
gem5 is copyrighted software; use the --copyright option for details.

gem5 version 24.1.0.3
gem5 compiled Sep 28 2025 00:02:15
gem5 started Oct  1 2025 14:10:32
gem5 executing on arpit-linux, pid 24774
command line: ../gem5/build/RISCV/gem5.opt --outdir=results/compute_bound_workload/l2_256kB_16way test.py --isa=RISCV --binary=compute_bound_workload --cpu-type=O3 --l2-size=256kB --l2-assoc=16 --ROB-entries=192 --issue-width=4 --commit-width=4 --l1i-size=32kB --l1i-assoc=8 --l1d-size=32kB --l1d-assoc=8 --l1i-replace-policy=LRU --l1d-replace-policy=LRU --l2-replace-policy=LRU --branch-predictor-enable --branch-predictor-type=TournamentBP --mem-dep-pred-enable --l1d-prefetcher-type=StridePrefetcher --l2-prefetcher-type=TaggedPrefetcher

info: Standard input is not a terminal, disabling listeners.
src/sim/simulate.cc:199: info: Entering event queue @ 0.  Starting simulation...
src/sim/syscall_emul.cc:97: warn: ignoring syscall set_robust_list(...)
      (further warnings will be suppressed)
src/sim/syscall_emul.hh:1117: warn: readlink() called on '/proc/self/exe' may yield unexpected results in various settings.
      Returning '/home/arpit/Desktop/iitd/sem_7/COL718/projects/OoO-and-Speculation/compute_bound_workload'
src/sim/mem_state.cc:448: info: Increasing stack size by one page.
src/sim/syscall_emul.cc:86: warn: ignoring syscall mprotect(...)
Starting compute-bound workload...
Compute-bound workload complete. Final result (to prevent optimization): -47.596219
Exiting @ tick 41404466421 because exiting with last active thread context.
Simulation finished for results/compute_bound_workload/l2_256kB_16way.

-------------------------------------------------
 WORKLOAD: compute_bound_workload
 SAVING TO: results/compute_bound_workload/l2_512kB_8way
 PARAMS: --l2-size=512kB --l2-assoc=8 --ROB-entries=192 --issue-width=4 --commit-width=4 --l1i-size=32kB --l1i-assoc=8 --l1d-size=32kB --l1d-assoc=8 --l1i-replace-policy=LRU --l1d-replace-policy=LRU --l2-replace-policy=LRU --branch-predictor-enable --branch-predictor-type=TournamentBP --mem-dep-pred-enable --l1d-prefetcher-type=StridePrefetcher --l2-prefetcher-type=TaggedPrefetcher
-------------------------------------------------
warn: Base 10 memory/cache size 32kB will be cast to base 2 size 32KiB.
warn: Base 10 memory/cache size 32kB will be cast to base 2 size 32KiB.
warn: Base 10 memory/cache size 512kB will be cast to base 2 size 512KiB.
Global frequency set at 1000000000000 ticks per second
src/arch/riscv/isa.cc:279: info: RVV enabled, VLEN = 256 bits, ELEN = 64 bits
src/base/statistics.hh:279: warn: One of the stats is a legacy stat. Legacy stat is a stat that does not belong to any statistics::Group. Legacy stat is deprecated.
src/base/remote_gdb.cc:418: warn: Sockets disabled, not accepting gdb connections
gem5 Simulator System.  https://www.gem5.org
gem5 is copyrighted software; use the --copyright option for details.

gem5 version 24.1.0.3
gem5 compiled Sep 28 2025 00:02:15
gem5 started Oct  1 2025 14:14:13
gem5 executing on arpit-linux, pid 25096
command line: ../gem5/build/RISCV/gem5.opt --outdir=results/compute_bound_workload/l2_512kB_8way test.py --isa=RISCV --binary=compute_bound_workload --cpu-type=O3 --l2-size=512kB --l2-assoc=8 --ROB-entries=192 --issue-width=4 --commit-width=4 --l1i-size=32kB --l1i-assoc=8 --l1d-size=32kB --l1d-assoc=8 --l1i-replace-policy=LRU --l1d-replace-policy=LRU --l2-replace-policy=LRU --branch-predictor-enable --branch-predictor-type=TournamentBP --mem-dep-pred-enable --l1d-prefetcher-type=StridePrefetcher --l2-prefetcher-type=TaggedPrefetcher

info: Standard input is not a terminal, disabling listeners.
src/sim/simulate.cc:199: info: Entering event queue @ 0.  Starting simulation...
src/sim/syscall_emul.cc:97: warn: ignoring syscall set_robust_list(...)
      (further warnings will be suppressed)
src/sim/syscall_emul.hh:1117: warn: readlink() called on '/proc/self/exe' may yield unexpected results in various settings.
      Returning '/home/arpit/Desktop/iitd/sem_7/COL718/projects/OoO-and-Speculation/compute_bound_workload'
src/sim/mem_state.cc:448: info: Increasing stack size by one page.
src/sim/syscall_emul.cc:86: warn: ignoring syscall mprotect(...)
Starting compute-bound workload...
Compute-bound workload complete. Final result (to prevent optimization): -47.596219
Exiting @ tick 41404466421 because exiting with last active thread context.
Simulation finished for results/compute_bound_workload/l2_512kB_8way.

-------------------------------------------------
 WORKLOAD: compute_bound_workload
 SAVING TO: results/compute_bound_workload/l2_512kB_16way
 PARAMS: --l2-size=512kB --l2-assoc=16 --ROB-entries=192 --issue-width=4 --commit-width=4 --l1i-size=32kB --l1i-assoc=8 --l1d-size=32kB --l1d-assoc=8 --l1i-replace-policy=LRU --l1d-replace-policy=LRU --l2-replace-policy=LRU --branch-predictor-enable --branch-predictor-type=TournamentBP --mem-dep-pred-enable --l1d-prefetcher-type=StridePrefetcher --l2-prefetcher-type=TaggedPrefetcher
-------------------------------------------------
warn: Base 10 memory/cache size 32kB will be cast to base 2 size 32KiB.
warn: Base 10 memory/cache size 32kB will be cast to base 2 size 32KiB.
warn: Base 10 memory/cache size 512kB will be cast to base 2 size 512KiB.
Global frequency set at 1000000000000 ticks per second
src/arch/riscv/isa.cc:279: info: RVV enabled, VLEN = 256 bits, ELEN = 64 bits
src/base/statistics.hh:279: warn: One of the stats is a legacy stat. Legacy stat is a stat that does not belong to any statistics::Group. Legacy stat is deprecated.
src/base/remote_gdb.cc:418: warn: Sockets disabled, not accepting gdb connections
gem5 Simulator System.  https://www.gem5.org
gem5 is copyrighted software; use the --copyright option for details.

gem5 version 24.1.0.3
gem5 compiled Sep 28 2025 00:02:15
gem5 started Oct  1 2025 14:17:53
gem5 executing on arpit-linux, pid 25363
command line: ../gem5/build/RISCV/gem5.opt --outdir=results/compute_bound_workload/l2_512kB_16way test.py --isa=RISCV --binary=compute_bound_workload --cpu-type=O3 --l2-size=512kB --l2-assoc=16 --ROB-entries=192 --issue-width=4 --commit-width=4 --l1i-size=32kB --l1i-assoc=8 --l1d-size=32kB --l1d-assoc=8 --l1i-replace-policy=LRU --l1d-replace-policy=LRU --l2-replace-policy=LRU --branch-predictor-enable --branch-predictor-type=TournamentBP --mem-dep-pred-enable --l1d-prefetcher-type=StridePrefetcher --l2-prefetcher-type=TaggedPrefetcher

info: Standard input is not a terminal, disabling listeners.
src/sim/simulate.cc:199: info: Entering event queue @ 0.  Starting simulation...
src/sim/syscall_emul.cc:97: warn: ignoring syscall set_robust_list(...)
      (further warnings will be suppressed)
src/sim/syscall_emul.hh:1117: warn: readlink() called on '/proc/self/exe' may yield unexpected results in various settings.
      Returning '/home/arpit/Desktop/iitd/sem_7/COL718/projects/OoO-and-Speculation/compute_bound_workload'
src/sim/mem_state.cc:448: info: Increasing stack size by one page.
src/sim/syscall_emul.cc:86: warn: ignoring syscall mprotect(...)
Starting compute-bound workload...
Compute-bound workload complete. Final result (to prevent optimization): -47.596219
Exiting @ tick 41404466421 because exiting with last active thread context.
Simulation finished for results/compute_bound_workload/l2_512kB_16way.

-------------------------------------------------
 WORKLOAD: compute_bound_workload
 SAVING TO: results/compute_bound_workload/l2_1MB_8way
 PARAMS: --l2-size=1MB --l2-assoc=8 --ROB-entries=192 --issue-width=4 --commit-width=4 --l1i-size=32kB --l1i-assoc=8 --l1d-size=32kB --l1d-assoc=8 --l1i-replace-policy=LRU --l1d-replace-policy=LRU --l2-replace-policy=LRU --branch-predictor-enable --branch-predictor-type=TournamentBP --mem-dep-pred-enable --l1d-prefetcher-type=StridePrefetcher --l2-prefetcher-type=TaggedPrefetcher
-------------------------------------------------
warn: Base 10 memory/cache size 32kB will be cast to base 2 size 32KiB.
warn: Base 10 memory/cache size 32kB will be cast to base 2 size 32KiB.
warn: Base 10 memory/cache size 1MB will be cast to base 2 size 1MiB.
Global frequency set at 1000000000000 ticks per second
src/arch/riscv/isa.cc:279: info: RVV enabled, VLEN = 256 bits, ELEN = 64 bits
src/base/statistics.hh:279: warn: One of the stats is a legacy stat. Legacy stat is a stat that does not belong to any statistics::Group. Legacy stat is deprecated.
src/base/remote_gdb.cc:418: warn: Sockets disabled, not accepting gdb connections
gem5 Simulator System.  https://www.gem5.org
gem5 is copyrighted software; use the --copyright option for details.

gem5 version 24.1.0.3
gem5 compiled Sep 28 2025 00:02:15
gem5 started Oct  1 2025 14:21:36
gem5 executing on arpit-linux, pid 25679
command line: ../gem5/build/RISCV/gem5.opt --outdir=results/compute_bound_workload/l2_1MB_8way test.py --isa=RISCV --binary=compute_bound_workload --cpu-type=O3 --l2-size=1MB --l2-assoc=8 --ROB-entries=192 --issue-width=4 --commit-width=4 --l1i-size=32kB --l1i-assoc=8 --l1d-size=32kB --l1d-assoc=8 --l1i-replace-policy=LRU --l1d-replace-policy=LRU --l2-replace-policy=LRU --branch-predictor-enable --branch-predictor-type=TournamentBP --mem-dep-pred-enable --l1d-prefetcher-type=StridePrefetcher --l2-prefetcher-type=TaggedPrefetcher

info: Standard input is not a terminal, disabling listeners.
src/sim/simulate.cc:199: info: Entering event queue @ 0.  Starting simulation...
src/sim/syscall_emul.cc:97: warn: ignoring syscall set_robust_list(...)
      (further warnings will be suppressed)
src/sim/syscall_emul.hh:1117: warn: readlink() called on '/proc/self/exe' may yield unexpected results in various settings.
      Returning '/home/arpit/Desktop/iitd/sem_7/COL718/projects/OoO-and-Speculation/compute_bound_workload'
src/sim/mem_state.cc:448: info: Increasing stack size by one page.
src/sim/syscall_emul.cc:86: warn: ignoring syscall mprotect(...)
Starting compute-bound workload...
Compute-bound workload complete. Final result (to prevent optimization): -47.596219
Exiting @ tick 41404466421 because exiting with last active thread context.
Simulation finished for results/compute_bound_workload/l2_1MB_8way.

-------------------------------------------------
 WORKLOAD: compute_bound_workload
 SAVING TO: results/compute_bound_workload/l2_1MB_16way
 PARAMS: --l2-size=1MB --l2-assoc=16 --ROB-entries=192 --issue-width=4 --commit-width=4 --l1i-size=32kB --l1i-assoc=8 --l1d-size=32kB --l1d-assoc=8 --l1i-replace-policy=LRU --l1d-replace-policy=LRU --l2-replace-policy=LRU --branch-predictor-enable --branch-predictor-type=TournamentBP --mem-dep-pred-enable --l1d-prefetcher-type=StridePrefetcher --l2-prefetcher-type=TaggedPrefetcher
-------------------------------------------------
warn: Base 10 memory/cache size 32kB will be cast to base 2 size 32KiB.
warn: Base 10 memory/cache size 32kB will be cast to base 2 size 32KiB.
warn: Base 10 memory/cache size 1MB will be cast to base 2 size 1MiB.
Global frequency set at 1000000000000 ticks per second
src/arch/riscv/isa.cc:279: info: RVV enabled, VLEN = 256 bits, ELEN = 64 bits
src/base/statistics.hh:279: warn: One of the stats is a legacy stat. Legacy stat is a stat that does not belong to any statistics::Group. Legacy stat is deprecated.
src/base/remote_gdb.cc:418: warn: Sockets disabled, not accepting gdb connections
gem5 Simulator System.  https://www.gem5.org
gem5 is copyrighted software; use the --copyright option for details.

gem5 version 24.1.0.3
gem5 compiled Sep 28 2025 00:02:15
gem5 started Oct  1 2025 14:25:17
gem5 executing on arpit-linux, pid 26006
command line: ../gem5/build/RISCV/gem5.opt --outdir=results/compute_bound_workload/l2_1MB_16way test.py --isa=RISCV --binary=compute_bound_workload --cpu-type=O3 --l2-size=1MB --l2-assoc=16 --ROB-entries=192 --issue-width=4 --commit-width=4 --l1i-size=32kB --l1i-assoc=8 --l1d-size=32kB --l1d-assoc=8 --l1i-replace-policy=LRU --l1d-replace-policy=LRU --l2-replace-policy=LRU --branch-predictor-enable --branch-predictor-type=TournamentBP --mem-dep-pred-enable --l1d-prefetcher-type=StridePrefetcher --l2-prefetcher-type=TaggedPrefetcher

info: Standard input is not a terminal, disabling listeners.
src/sim/simulate.cc:199: info: Entering event queue @ 0.  Starting simulation...
src/sim/syscall_emul.cc:97: warn: ignoring syscall set_robust_list(...)
      (further warnings will be suppressed)
src/sim/syscall_emul.hh:1117: warn: readlink() called on '/proc/self/exe' may yield unexpected results in various settings.
      Returning '/home/arpit/Desktop/iitd/sem_7/COL718/projects/OoO-and-Speculation/compute_bound_workload'
src/sim/mem_state.cc:448: info: Increasing stack size by one page.
src/sim/syscall_emul.cc:86: warn: ignoring syscall mprotect(...)
Starting compute-bound workload...
Compute-bound workload complete. Final result (to prevent optimization): -47.596219
Exiting @ tick 41404466421 because exiting with last active thread context.
Simulation finished for results/compute_bound_workload/l2_1MB_16way.

-------------------------------------------------
 WORKLOAD: compute_bound_workload
 SAVING TO: results/compute_bound_workload/policy_LRU
 PARAMS: --l1i-replace-policy=LRU --l1d-replace-policy=LRU --l2-replace-policy=LRU --ROB-entries=192 --issue-width=4 --commit-width=4 --l1i-size=32kB --l1i-assoc=8 --l1d-size=32kB --l1d-assoc=8 --l2-size=256kB --l2-assoc=16 --branch-predictor-enable --branch-predictor-type=TournamentBP --mem-dep-pred-enable --l1d-prefetcher-type=StridePrefetcher --l2-prefetcher-type=TaggedPrefetcher
-------------------------------------------------
warn: Base 10 memory/cache size 32kB will be cast to base 2 size 32KiB.
warn: Base 10 memory/cache size 32kB will be cast to base 2 size 32KiB.
warn: Base 10 memory/cache size 256kB will be cast to base 2 size 256KiB.
Global frequency set at 1000000000000 ticks per second
src/arch/riscv/isa.cc:279: info: RVV enabled, VLEN = 256 bits, ELEN = 64 bits
src/base/statistics.hh:279: warn: One of the stats is a legacy stat. Legacy stat is a stat that does not belong to any statistics::Group. Legacy stat is deprecated.
src/base/remote_gdb.cc:418: warn: Sockets disabled, not accepting gdb connections
gem5 Simulator System.  https://www.gem5.org
gem5 is copyrighted software; use the --copyright option for details.

gem5 version 24.1.0.3
gem5 compiled Sep 28 2025 00:02:15
gem5 started Oct  1 2025 14:28:58
gem5 executing on arpit-linux, pid 26317
command line: ../gem5/build/RISCV/gem5.opt --outdir=results/compute_bound_workload/policy_LRU test.py --isa=RISCV --binary=compute_bound_workload --cpu-type=O3 --l1i-replace-policy=LRU --l1d-replace-policy=LRU --l2-replace-policy=LRU --ROB-entries=192 --issue-width=4 --commit-width=4 --l1i-size=32kB --l1i-assoc=8 --l1d-size=32kB --l1d-assoc=8 --l2-size=256kB --l2-assoc=16 --branch-predictor-enable --branch-predictor-type=TournamentBP --mem-dep-pred-enable --l1d-prefetcher-type=StridePrefetcher --l2-prefetcher-type=TaggedPrefetcher

info: Standard input is not a terminal, disabling listeners.
src/sim/simulate.cc:199: info: Entering event queue @ 0.  Starting simulation...
src/sim/syscall_emul.cc:97: warn: ignoring syscall set_robust_list(...)
      (further warnings will be suppressed)
src/sim/syscall_emul.hh:1117: warn: readlink() called on '/proc/self/exe' may yield unexpected results in various settings.
      Returning '/home/arpit/Desktop/iitd/sem_7/COL718/projects/OoO-and-Speculation/compute_bound_workload'
src/sim/mem_state.cc:448: info: Increasing stack size by one page.
src/sim/syscall_emul.cc:86: warn: ignoring syscall mprotect(...)
Starting compute-bound workload...
Compute-bound workload complete. Final result (to prevent optimization): -47.596219
Exiting @ tick 41404466421 because exiting with last active thread context.
Simulation finished for results/compute_bound_workload/policy_LRU.

-------------------------------------------------
 WORKLOAD: compute_bound_workload
 SAVING TO: results/compute_bound_workload/policy_Random
 PARAMS: --l1i-replace-policy=Random --l1d-replace-policy=Random --l2-replace-policy=Random --ROB-entries=192 --issue-width=4 --commit-width=4 --l1i-size=32kB --l1i-assoc=8 --l1d-size=32kB --l1d-assoc=8 --l2-size=256kB --l2-assoc=16 --branch-predictor-enable --branch-predictor-type=TournamentBP --mem-dep-pred-enable --l1d-prefetcher-type=StridePrefetcher --l2-prefetcher-type=TaggedPrefetcher
-------------------------------------------------
warn: Base 10 memory/cache size 32kB will be cast to base 2 size 32KiB.
warn: Base 10 memory/cache size 32kB will be cast to base 2 size 32KiB.
warn: Base 10 memory/cache size 256kB will be cast to base 2 size 256KiB.
Global frequency set at 1000000000000 ticks per second
src/arch/riscv/isa.cc:279: info: RVV enabled, VLEN = 256 bits, ELEN = 64 bits
src/base/statistics.hh:279: warn: One of the stats is a legacy stat. Legacy stat is a stat that does not belong to any statistics::Group. Legacy stat is deprecated.
src/base/remote_gdb.cc:418: warn: Sockets disabled, not accepting gdb connections
gem5 Simulator System.  https://www.gem5.org
gem5 is copyrighted software; use the --copyright option for details.

gem5 version 24.1.0.3
gem5 compiled Sep 28 2025 00:02:15
gem5 started Oct  1 2025 14:32:41
gem5 executing on arpit-linux, pid 26587
command line: ../gem5/build/RISCV/gem5.opt --outdir=results/compute_bound_workload/policy_Random test.py --isa=RISCV --binary=compute_bound_workload --cpu-type=O3 --l1i-replace-policy=Random --l1d-replace-policy=Random --l2-replace-policy=Random --ROB-entries=192 --issue-width=4 --commit-width=4 --l1i-size=32kB --l1i-assoc=8 --l1d-size=32kB --l1d-assoc=8 --l2-size=256kB --l2-assoc=16 --branch-predictor-enable --branch-predictor-type=TournamentBP --mem-dep-pred-enable --l1d-prefetcher-type=StridePrefetcher --l2-prefetcher-type=TaggedPrefetcher

info: Standard input is not a terminal, disabling listeners.
src/sim/simulate.cc:199: info: Entering event queue @ 0.  Starting simulation...
src/sim/syscall_emul.cc:97: warn: ignoring syscall set_robust_list(...)
      (further warnings will be suppressed)
src/sim/syscall_emul.hh:1117: warn: readlink() called on '/proc/self/exe' may yield unexpected results in various settings.
      Returning '/home/arpit/Desktop/iitd/sem_7/COL718/projects/OoO-and-Speculation/compute_bound_workload'
src/sim/mem_state.cc:448: info: Increasing stack size by one page.
src/sim/syscall_emul.cc:86: warn: ignoring syscall mprotect(...)
Starting compute-bound workload...
Compute-bound workload complete. Final result (to prevent optimization): -47.596219
Exiting @ tick 41404229325 because exiting with last active thread context.
Simulation finished for results/compute_bound_workload/policy_Random.

-------------------------------------------------
 WORKLOAD: compute_bound_workload
 SAVING TO: results/compute_bound_workload/policy_LFU
 PARAMS: --l1i-replace-policy=LFU --l1d-replace-policy=LFU --l2-replace-policy=LFU --ROB-entries=192 --issue-width=4 --commit-width=4 --l1i-size=32kB --l1i-assoc=8 --l1d-size=32kB --l1d-assoc=8 --l2-size=256kB --l2-assoc=16 --branch-predictor-enable --branch-predictor-type=TournamentBP --mem-dep-pred-enable --l1d-prefetcher-type=StridePrefetcher --l2-prefetcher-type=TaggedPrefetcher
-------------------------------------------------
warn: Base 10 memory/cache size 32kB will be cast to base 2 size 32KiB.
warn: Base 10 memory/cache size 32kB will be cast to base 2 size 32KiB.
warn: Base 10 memory/cache size 256kB will be cast to base 2 size 256KiB.
Global frequency set at 1000000000000 ticks per second
src/arch/riscv/isa.cc:279: info: RVV enabled, VLEN = 256 bits, ELEN = 64 bits
src/base/statistics.hh:279: warn: One of the stats is a legacy stat. Legacy stat is a stat that does not belong to any statistics::Group. Legacy stat is deprecated.
src/base/remote_gdb.cc:418: warn: Sockets disabled, not accepting gdb connections
gem5 Simulator System.  https://www.gem5.org
gem5 is copyrighted software; use the --copyright option for details.

gem5 version 24.1.0.3
gem5 compiled Sep 28 2025 00:02:15
gem5 started Oct  1 2025 14:36:25
gem5 executing on arpit-linux, pid 26912
command line: ../gem5/build/RISCV/gem5.opt --outdir=results/compute_bound_workload/policy_LFU test.py --isa=RISCV --binary=compute_bound_workload --cpu-type=O3 --l1i-replace-policy=LFU --l1d-replace-policy=LFU --l2-replace-policy=LFU --ROB-entries=192 --issue-width=4 --commit-width=4 --l1i-size=32kB --l1i-assoc=8 --l1d-size=32kB --l1d-assoc=8 --l2-size=256kB --l2-assoc=16 --branch-predictor-enable --branch-predictor-type=TournamentBP --mem-dep-pred-enable --l1d-prefetcher-type=StridePrefetcher --l2-prefetcher-type=TaggedPrefetcher

info: Standard input is not a terminal, disabling listeners.
src/sim/simulate.cc:199: info: Entering event queue @ 0.  Starting simulation...
src/sim/syscall_emul.cc:97: warn: ignoring syscall set_robust_list(...)
      (further warnings will be suppressed)
src/sim/syscall_emul.hh:1117: warn: readlink() called on '/proc/self/exe' may yield unexpected results in various settings.
      Returning '/home/arpit/Desktop/iitd/sem_7/COL718/projects/OoO-and-Speculation/compute_bound_workload'
src/sim/mem_state.cc:448: info: Increasing stack size by one page.
src/sim/syscall_emul.cc:86: warn: ignoring syscall mprotect(...)
Starting compute-bound workload...
Compute-bound workload complete. Final result (to prevent optimization): -47.596219
Exiting @ tick 41405075811 because exiting with last active thread context.
Simulation finished for results/compute_bound_workload/policy_LFU.

-------------------------------------------------
 WORKLOAD: compute_bound_workload
 SAVING TO: results/compute_bound_workload/branch_spec_off
 PARAMS: --ROB-entries=192 --issue-width=4 --commit-width=4 --l1i-size=32kB --l1i-assoc=8 --l1d-size=32kB --l1d-assoc=8 --l2-size=256kB --l2-assoc=16 --l1i-replace-policy=LRU --l1d-replace-policy=LRU --l2-replace-policy=LRU --branch-predictor-type=TournamentBP --mem-dep-pred-enable --l1d-prefetcher-type=StridePrefetcher --l2-prefetcher-type=TaggedPrefetcher
-------------------------------------------------
warn: Base 10 memory/cache size 32kB will be cast to base 2 size 32KiB.
warn: Base 10 memory/cache size 32kB will be cast to base 2 size 32KiB.
warn: Base 10 memory/cache size 256kB will be cast to base 2 size 256KiB.
Global frequency set at 1000000000000 ticks per second
src/arch/riscv/isa.cc:279: info: RVV enabled, VLEN = 256 bits, ELEN = 64 bits
src/base/statistics.hh:279: warn: One of the stats is a legacy stat. Legacy stat is a stat that does not belong to any statistics::Group. Legacy stat is deprecated.
src/base/remote_gdb.cc:418: warn: Sockets disabled, not accepting gdb connections
gem5 Simulator System.  https://www.gem5.org
gem5 is copyrighted software; use the --copyright option for details.

gem5 version 24.1.0.3
gem5 compiled Sep 28 2025 00:02:15
gem5 started Oct  1 2025 14:40:06
gem5 executing on arpit-linux, pid 27221
command line: ../gem5/build/RISCV/gem5.opt --outdir=results/compute_bound_workload/branch_spec_off test.py --isa=RISCV --binary=compute_bound_workload --cpu-type=O3 --ROB-entries=192 --issue-width=4 --commit-width=4 --l1i-size=32kB --l1i-assoc=8 --l1d-size=32kB --l1d-assoc=8 --l2-size=256kB --l2-assoc=16 --l1i-replace-policy=LRU --l1d-replace-policy=LRU --l2-replace-policy=LRU --branch-predictor-type=TournamentBP --mem-dep-pred-enable --l1d-prefetcher-type=StridePrefetcher --l2-prefetcher-type=TaggedPrefetcher

info: Standard input is not a terminal, disabling listeners.
src/sim/simulate.cc:199: info: Entering event queue @ 0.  Starting simulation...
src/sim/syscall_emul.cc:97: warn: ignoring syscall set_robust_list(...)
      (further warnings will be suppressed)
src/sim/syscall_emul.hh:1117: warn: readlink() called on '/proc/self/exe' may yield unexpected results in various settings.
      Returning '/home/arpit/Desktop/iitd/sem_7/COL718/projects/OoO-and-Speculation/compute_bound_workload'
src/sim/mem_state.cc:448: info: Increasing stack size by one page.
src/sim/syscall_emul.cc:86: warn: ignoring syscall mprotect(...)
Starting compute-bound workload...
Compute-bound workload complete. Final result (to prevent optimization): -47.596219
Exiting @ tick 41404466421 because exiting with last active thread context.
Simulation finished for results/compute_bound_workload/branch_spec_off.
[...]
-------------------------------------------------
warn: Base 10 memory/cache size 32kB will be cast to base 2 size 32KiB.
warn: Base 10 memory/cache size 32kB will be cast to base 2 size 32KiB.
warn: Base 10 memory/cache size 256kB will be cast to base 2 size 256KiB.
Global frequency set at 1000000000000 ticks per second
src/arch/riscv/isa.cc:279: info: RVV enabled, VLEN = 256 bits, ELEN = 64 bits
src/base/statistics.hh:279: warn: One of the stats is a legacy stat. Legacy stat is a stat that does not belong to any statistics::Group. Legacy stat is deprecated.
src/base/remote_gdb.cc:418: warn: Sockets disabled, not accepting gdb connections
gem5 Simulator System.  https://www.gem5.org
gem5 is copyrighted software; use the --copyright option for details.

gem5 version 24.1.0.3
gem5 compiled Sep 28 2025 00:02:15
gem5 started Oct  1 2025 23:11:41
gem5 executing on arpit-linux, pid 70170
command line: ../gem5/build/RISCV/gem5.opt --outdir=results/streaming_workload/mem_spec_off test.py --isa=RISCV --binary=streaming_workload --cpu-type=O3 --ROB-entries=192 --issue-width=4 --commit-width=4 --l1i-size=32kB --l1i-assoc=8 --l1d-size=32kB --l1d-assoc=8 --l2-size=256kB --l2-assoc=16 --l1i-replace-policy=LRU --l1d-replace-policy=LRU --l2-replace-policy=LRU --branch-predictor-enable --branch-predictor-type=TournamentBP --l1d-prefetcher-type=StridePrefetcher --l2-prefetcher-type=TaggedPrefetcher

info: Standard input is not a terminal, disabling listeners.
src/sim/simulate.cc:199: info: Entering event queue @ 0.  Starting simulation...
src/sim/syscall_emul.cc:97: warn: ignoring syscall set_robust_list(...)
      (further warnings will be suppressed)
src/sim/syscall_emul.hh:1117: warn: readlink() called on '/proc/self/exe' may yield unexpected results in various settings.
      Returning '/home/arpit/Desktop/iitd/sem_7/COL718/projects/OoO-and-Speculation/streaming_workload'
src/sim/mem_state.cc:448: info: Increasing stack size by one page.
src/sim/syscall_emul.cc:86: warn: ignoring syscall mprotect(...)
Starting streaming memory access kernel...
Streaming kernel complete. Result (to prevent optimization): 6.500000
Exiting @ tick 39535658100 because exiting with last active thread context.
Simulation finished for results/streaming_workload/mem_spec_off.

-------------------------------------------------
 WORKLOAD: streaming_workload
 SAVING TO: results/streaming_workload/mem_spec_on
 PARAMS: --ROB-entries=192 --issue-width=4 --commit-width=4 --l1i-size=32kB --l1i-assoc=8 --l1d-size=32kB --l1d-assoc=8 --l2-size=256kB --l2-assoc=16 --l1i-replace-policy=LRU --l1d-replace-policy=LRU --l2-replace-policy=LRU --branch-predictor-enable --branch-predictor-type=TournamentBP --mem-dep-pred-enable --l1d-prefetcher-type=StridePrefetcher --l2-prefetcher-type=TaggedPrefetcher
-------------------------------------------------
warn: Base 10 memory/cache size 32kB will be cast to base 2 size 32KiB.
warn: Base 10 memory/cache size 32kB will be cast to base 2 size 32KiB.
warn: Base 10 memory/cache size 256kB will be cast to base 2 size 256KiB.
Global frequency set at 1000000000000 ticks per second
src/arch/riscv/isa.cc:279: info: RVV enabled, VLEN = 256 bits, ELEN = 64 bits
src/base/statistics.hh:279: warn: One of the stats is a legacy stat. Legacy stat is a stat that does not belong to any statistics::Group. Legacy stat is deprecated.
src/base/remote_gdb.cc:418: warn: Sockets disabled, not accepting gdb connections
gem5 Simulator System.  https://www.gem5.org
gem5 is copyrighted software; use the --copyright option for details.

gem5 version 24.1.0.3
gem5 compiled Sep 28 2025 00:02:15
gem5 started Oct  1 2025 23:15:29
gem5 executing on arpit-linux, pid 70492
command line: ../gem5/build/RISCV/gem5.opt --outdir=results/streaming_workload/mem_spec_on test.py --isa=RISCV --binary=streaming_workload --cpu-type=O3 --ROB-entries=192 --issue-width=4 --commit-width=4 --l1i-size=32kB --l1i-assoc=8 --l1d-size=32kB --l1d-assoc=8 --l2-size=256kB --l2-assoc=16 --l1i-replace-policy=LRU --l1d-replace-policy=LRU --l2-replace-policy=LRU --branch-predictor-enable --branch-predictor-type=TournamentBP --mem-dep-pred-enable --l1d-prefetcher-type=StridePrefetcher --l2-prefetcher-type=TaggedPrefetcher

info: Standard input is not a terminal, disabling listeners.
src/sim/simulate.cc:199: info: Entering event queue @ 0.  Starting simulation...
src/sim/syscall_emul.cc:97: warn: ignoring syscall set_robust_list(...)
      (further warnings will be suppressed)
src/sim/syscall_emul.hh:1117: warn: readlink() called on '/proc/self/exe' may yield unexpected results in various settings.
      Returning '/home/arpit/Desktop/iitd/sem_7/COL718/projects/OoO-and-Speculation/streaming_workload'
src/sim/mem_state.cc:448: info: Increasing stack size by one page.
src/sim/syscall_emul.cc:86: warn: ignoring syscall mprotect(...)
Starting streaming memory access kernel...
Streaming kernel complete. Result (to prevent optimization): 6.500000
Exiting @ tick 24618251772 because exiting with last active thread context.
Simulation finished for results/streaming_workload/mem_spec_on.

-------------------------------------------------
 WORKLOAD: streaming_workload
 SAVING TO: results/streaming_workload/prefetcher_off
 PARAMS: --l1d-prefetcher-type=None --ROB-entries=192 --issue-width=4 --commit-width=4 --l1i-size=32kB --l1i-assoc=8 --l1d-size=32kB --l1d-assoc=8 --l2-size=256kB --l2-assoc=16 --l1i-replace-policy=LRU --l1d-replace-policy=LRU --l2-replace-policy=LRU --branch-predictor-enable --branch-predictor-type=TournamentBP --mem-dep-pred-enable --l2-prefetcher-type=TaggedPrefetcher
-------------------------------------------------
warn: Base 10 memory/cache size 32kB will be cast to base 2 size 32KiB.
warn: Base 10 memory/cache size 32kB will be cast to base 2 size 32KiB.
warn: Base 10 memory/cache size 256kB will be cast to base 2 size 256KiB.
Global frequency set at 1000000000000 ticks per second
src/arch/riscv/isa.cc:279: info: RVV enabled, VLEN = 256 bits, ELEN = 64 bits
src/base/statistics.hh:279: warn: One of the stats is a legacy stat. Legacy stat is a stat that does not belong to any statistics::Group. Legacy stat is deprecated.
src/base/remote_gdb.cc:418: warn: Sockets disabled, not accepting gdb connections
gem5 Simulator System.  https://www.gem5.org
gem5 is copyrighted software; use the --copyright option for details.

gem5 version 24.1.0.3
gem5 compiled Sep 28 2025 00:02:15
gem5 started Oct  1 2025 23:19:01
gem5 executing on arpit-linux, pid 71173
command line: ../gem5/build/RISCV/gem5.opt --outdir=results/streaming_workload/prefetcher_off test.py --isa=RISCV --binary=streaming_workload --cpu-type=O3 --l1d-prefetcher-type=None --ROB-entries=192 --issue-width=4 --commit-width=4 --l1i-size=32kB --l1i-assoc=8 --l1d-size=32kB --l1d-assoc=8 --l2-size=256kB --l2-assoc=16 --l1i-replace-policy=LRU --l1d-replace-policy=LRU --l2-replace-policy=LRU --branch-predictor-enable --branch-predictor-type=TournamentBP --mem-dep-pred-enable --l2-prefetcher-type=TaggedPrefetcher

info: Standard input is not a terminal, disabling listeners.
src/sim/simulate.cc:199: info: Entering event queue @ 0.  Starting simulation...
src/sim/syscall_emul.cc:97: warn: ignoring syscall set_robust_list(...)
      (further warnings will be suppressed)
src/sim/syscall_emul.hh:1117: warn: readlink() called on '/proc/self/exe' may yield unexpected results in various settings.
      Returning '/home/arpit/Desktop/iitd/sem_7/COL718/projects/OoO-and-Speculation/streaming_workload'
src/sim/mem_state.cc:448: info: Increasing stack size by one page.
src/sim/syscall_emul.cc:86: warn: ignoring syscall mprotect(...)
Starting streaming memory access kernel...
Streaming kernel complete. Result (to prevent optimization): 6.500000
Exiting @ tick 28153953864 because exiting with last active thread context.
Simulation finished for results/streaming_workload/prefetcher_off.

-------------------------------------------------
 WORKLOAD: streaming_workload
 SAVING TO: results/streaming_workload/prefetcher_on
 PARAMS: --ROB-entries=192 --issue-width=4 --commit-width=4 --l1i-size=32kB --l1i-assoc=8 --l1d-size=32kB --l1d-assoc=8 --l2-size=256kB --l2-assoc=16 --l1i-replace-policy=LRU --l1d-replace-policy=LRU --l2-replace-policy=LRU --branch-predictor-enable --branch-predictor-type=TournamentBP --mem-dep-pred-enable --l1d-prefetcher-type=StridePrefetcher --l2-prefetcher-type=TaggedPrefetcher
-------------------------------------------------
warn: Base 10 memory/cache size 32kB will be cast to base 2 size 32KiB.
warn: Base 10 memory/cache size 32kB will be cast to base 2 size 32KiB.
warn: Base 10 memory/cache size 256kB will be cast to base 2 size 256KiB.
Global frequency set at 1000000000000 ticks per second
src/arch/riscv/isa.cc:279: info: RVV enabled, VLEN = 256 bits, ELEN = 64 bits
src/base/statistics.hh:279: warn: One of the stats is a legacy stat. Legacy stat is a stat that does not belong to any statistics::Group. Legacy stat is deprecated.
src/base/remote_gdb.cc:418: warn: Sockets disabled, not accepting gdb connections
gem5 Simulator System.  https://www.gem5.org
gem5 is copyrighted software; use the --copyright option for details.

gem5 version 24.1.0.3
gem5 compiled Sep 28 2025 00:02:15
gem5 started Oct  1 2025 23:22:35
gem5 executing on arpit-linux, pid 71773
command line: ../gem5/build/RISCV/gem5.opt --outdir=results/streaming_workload/prefetcher_on test.py --isa=RISCV --binary=streaming_workload --cpu-type=O3 --ROB-entries=192 --issue-width=4 --commit-width=4 --l1i-size=32kB --l1i-assoc=8 --l1d-size=32kB --l1d-assoc=8 --l2-size=256kB --l2-assoc=16 --l1i-replace-policy=LRU --l1d-replace-policy=LRU --l2-replace-policy=LRU --branch-predictor-enable --branch-predictor-type=TournamentBP --mem-dep-pred-enable --l1d-prefetcher-type=StridePrefetcher --l2-prefetcher-type=TaggedPrefetcher

info: Standard input is not a terminal, disabling listeners.
src/sim/simulate.cc:199: info: Entering event queue @ 0.  Starting simulation...
src/sim/syscall_emul.cc:97: warn: ignoring syscall set_robust_list(...)
      (further warnings will be suppressed)
src/sim/syscall_emul.hh:1117: warn: readlink() called on '/proc/self/exe' may yield unexpected results in various settings.
      Returning '/home/arpit/Desktop/iitd/sem_7/COL718/projects/OoO-and-Speculation/streaming_workload'
src/sim/mem_state.cc:448: info: Increasing stack size by one page.
src/sim/syscall_emul.cc:86: warn: ignoring syscall mprotect(...)
Starting streaming memory access kernel...
Streaming kernel complete. Result (to prevent optimization): 6.500000
Exiting @ tick 24618251772 because exiting with last active thread context.
Simulation finished for results/streaming_workload/prefetcher_on.

-------------------------------------------------
 WORKLOAD: streaming_workload
 SAVING TO: results/streaming_workload/l2_prefetcher_off
 PARAMS: --l2-prefetcher-type=None --ROB-entries=192 --issue-width=4 --commit-width=4 --l1i-size=32kB --l1i-assoc=8 --l1d-size=32kB --l1d-assoc=8 --l2-size=256kB --l2-assoc=16 --l1i-replace-policy=LRU --l1d-replace-policy=LRU --l2-replace-policy=LRU --branch-predictor-enable --branch-predictor-type=TournamentBP --mem-dep-pred-enable --l1d-prefetcher-type=StridePrefetcher --l2-prefetcher-type=TaggedPrefetcher
-------------------------------------------------
warn: Base 10 memory/cache size 32kB will be cast to base 2 size 32KiB.
warn: Base 10 memory/cache size 32kB will be cast to base 2 size 32KiB.
warn: Base 10 memory/cache size 256kB will be cast to base 2 size 256KiB.
Global frequency set at 1000000000000 ticks per second
src/arch/riscv/isa.cc:279: info: RVV enabled, VLEN = 256 bits, ELEN = 64 bits
src/base/statistics.hh:279: warn: One of the stats is a legacy stat. Legacy stat is a stat that does not belong to any statistics::Group. Legacy stat is deprecated.
src/base/remote_gdb.cc:418: warn: Sockets disabled, not accepting gdb connections
gem5 Simulator System.  https://www.gem5.org
gem5 is copyrighted software; use the --copyright option for details.

gem5 version 24.1.0.3
gem5 compiled Sep 28 2025 00:02:15
gem5 started Oct  1 2025 23:26:06
gem5 executing on arpit-linux, pid 72430
command line: ../gem5/build/RISCV/gem5.opt --outdir=results/streaming_workload/l2_prefetcher_off test.py --isa=RISCV --binary=streaming_workload --cpu-type=O3 --l2-prefetcher-type=None --ROB-entries=192 --issue-width=4 --commit-width=4 --l1i-size=32kB --l1i-assoc=8 --l1d-size=32kB --l1d-assoc=8 --l2-size=256kB --l2-assoc=16 --l1i-replace-policy=LRU --l1d-replace-policy=LRU --l2-replace-policy=LRU --branch-predictor-enable --branch-predictor-type=TournamentBP --mem-dep-pred-enable --l1d-prefetcher-type=StridePrefetcher --l2-prefetcher-type=TaggedPrefetcher

info: Standard input is not a terminal, disabling listeners.
src/sim/simulate.cc:199: info: Entering event queue @ 0.  Starting simulation...
src/sim/syscall_emul.cc:97: warn: ignoring syscall set_robust_list(...)
      (further warnings will be suppressed)
src/sim/syscall_emul.hh:1117: warn: readlink() called on '/proc/self/exe' may yield unexpected results in various settings.
      Returning '/home/arpit/Desktop/iitd/sem_7/COL718/projects/OoO-and-Speculation/streaming_workload'
src/sim/mem_state.cc:448: info: Increasing stack size by one page.
src/sim/syscall_emul.cc:86: warn: ignoring syscall mprotect(...)
Starting streaming memory access kernel...
Streaming kernel complete. Result (to prevent optimization): 6.500000
Exiting @ tick 24618251772 because exiting with last active thread context.
Simulation finished for results/streaming_workload/l2_prefetcher_off.

-------------------------------------------------
 WORKLOAD: streaming_workload
 SAVING TO: results/streaming_workload/l2_prefetcher_TaggedPrefetcher
 PARAMS: --l2-prefetcher-type=TaggedPrefetcher --ROB-entries=192 --issue-width=4 --commit-width=4 --l1i-size=32kB --l1i-assoc=8 --l1d-size=32kB --l1d-assoc=8 --l2-size=256kB --l2-assoc=16 --l1i-replace-policy=LRU --l1d-replace-policy=LRU --l2-replace-policy=LRU --branch-predictor-enable --branch-predictor-type=TournamentBP --mem-dep-pred-enable --l1d-prefetcher-type=StridePrefetcher --l2-prefetcher-type=TaggedPrefetcher
-------------------------------------------------
warn: Base 10 memory/cache size 32kB will be cast to base 2 size 32KiB.
warn: Base 10 memory/cache size 32kB will be cast to base 2 size 32KiB.
warn: Base 10 memory/cache size 256kB will be cast to base 2 size 256KiB.
Global frequency set at 1000000000000 ticks per second
src/arch/riscv/isa.cc:279: info: RVV enabled, VLEN = 256 bits, ELEN = 64 bits
src/base/statistics.hh:279: warn: One of the stats is a legacy stat. Legacy stat is a stat that does not belong to any statistics::Group. Legacy stat is deprecated.
src/base/remote_gdb.cc:418: warn: Sockets disabled, not accepting gdb connections
gem5 Simulator System.  https://www.gem5.org
gem5 is copyrighted software; use the --copyright option for details.

gem5 version 24.1.0.3
gem5 compiled Sep 28 2025 00:02:15
gem5 started Oct  1 2025 23:29:37
gem5 executing on arpit-linux, pid 73046
command line: ../gem5/build/RISCV/gem5.opt --outdir=results/streaming_workload/l2_prefetcher_TaggedPrefetcher test.py --isa=RISCV --binary=streaming_workload --cpu-type=O3 --l2-prefetcher-type=TaggedPrefetcher --ROB-entries=192 --issue-width=4 --commit-width=4 --l1i-size=32kB --l1i-assoc=8 --l1d-size=32kB --l1d-assoc=8 --l2-size=256kB --l2-assoc=16 --l1i-replace-policy=LRU --l1d-replace-policy=LRU --l2-replace-policy=LRU --branch-predictor-enable --branch-predictor-type=TournamentBP --mem-dep-pred-enable --l1d-prefetcher-type=StridePrefetcher --l2-prefetcher-type=TaggedPrefetcher

info: Standard input is not a terminal, disabling listeners.
src/sim/simulate.cc:199: info: Entering event queue @ 0.  Starting simulation...
src/sim/syscall_emul.cc:97: warn: ignoring syscall set_robust_list(...)
      (further warnings will be suppressed)
src/sim/syscall_emul.hh:1117: warn: readlink() called on '/proc/self/exe' may yield unexpected results in various settings.
      Returning '/home/arpit/Desktop/iitd/sem_7/COL718/projects/OoO-and-Speculation/streaming_workload'
src/sim/mem_state.cc:448: info: Increasing stack size by one page.
src/sim/syscall_emul.cc:86: warn: ignoring syscall mprotect(...)
Starting streaming memory access kernel...
Streaming kernel complete. Result (to prevent optimization): 6.500000
Exiting @ tick 24618251772 because exiting with last active thread context.
Simulation finished for results/streaming_workload/l2_prefetcher_TaggedPrefetcher.

-------------------------------------------------
 WORKLOAD: streaming_workload
 SAVING TO: results/streaming_workload/l2_prefetcher_DCPTPrefetcher
 PARAMS: --l2-prefetcher-type=DCPTPrefetcher --ROB-entries=192 --issue-width=4 --commit-width=4 --l1i-size=32kB --l1i-assoc=8 --l1d-size=32kB --l1d-assoc=8 --l2-size=256kB --l2-assoc=16 --l1i-replace-policy=LRU --l1d-replace-policy=LRU --l2-replace-policy=LRU --branch-predictor-enable --branch-predictor-type=TournamentBP --mem-dep-pred-enable --l1d-prefetcher-type=StridePrefetcher --l2-prefetcher-type=TaggedPrefetcher
-------------------------------------------------
warn: Base 10 memory/cache size 32kB will be cast to base 2 size 32KiB.
warn: Base 10 memory/cache size 32kB will be cast to base 2 size 32KiB.
warn: Base 10 memory/cache size 256kB will be cast to base 2 size 256KiB.
Global frequency set at 1000000000000 ticks per second
src/arch/riscv/isa.cc:279: info: RVV enabled, VLEN = 256 bits, ELEN = 64 bits
src/base/statistics.hh:279: warn: One of the stats is a legacy stat. Legacy stat is a stat that does not belong to any statistics::Group. Legacy stat is deprecated.
src/base/remote_gdb.cc:418: warn: Sockets disabled, not accepting gdb connections
gem5 Simulator System.  https://www.gem5.org
gem5 is copyrighted software; use the --copyright option for details.

gem5 version 24.1.0.3
gem5 compiled Sep 28 2025 00:02:15
gem5 started Oct  1 2025 23:33:07
gem5 executing on arpit-linux, pid 73373
command line: ../gem5/build/RISCV/gem5.opt --outdir=results/streaming_workload/l2_prefetcher_DCPTPrefetcher test.py --isa=RISCV --binary=streaming_workload --cpu-type=O3 --l2-prefetcher-type=DCPTPrefetcher --ROB-entries=192 --issue-width=4 --commit-width=4 --l1i-size=32kB --l1i-assoc=8 --l1d-size=32kB --l1d-assoc=8 --l2-size=256kB --l2-assoc=16 --l1i-replace-policy=LRU --l1d-replace-policy=LRU --l2-replace-policy=LRU --branch-predictor-enable --branch-predictor-type=TournamentBP --mem-dep-pred-enable --l1d-prefetcher-type=StridePrefetcher --l2-prefetcher-type=TaggedPrefetcher

info: Standard input is not a terminal, disabling listeners.
src/sim/simulate.cc:199: info: Entering event queue @ 0.  Starting simulation...
src/sim/syscall_emul.cc:97: warn: ignoring syscall set_robust_list(...)
      (further warnings will be suppressed)
src/sim/syscall_emul.hh:1117: warn: readlink() called on '/proc/self/exe' may yield unexpected results in various settings.
      Returning '/home/arpit/Desktop/iitd/sem_7/COL718/projects/OoO-and-Speculation/streaming_workload'
src/sim/mem_state.cc:448: info: Increasing stack size by one page.
src/sim/syscall_emul.cc:86: warn: ignoring syscall mprotect(...)
Starting streaming memory access kernel...
Streaming kernel complete. Result (to prevent optimization): 6.500000
Exiting @ tick 24618251772 because exiting with last active thread context.
Simulation finished for results/streaming_workload/l2_prefetcher_DCPTPrefetcher.

=================================================
 All experiments complete!
 Results are located in the 'results/' directory.
=================================================
