
---------- Begin Simulation Statistics ----------
simSeconds                                   0.264859                       # Number of seconds simulated (Second)
simTicks                                 264858836706                       # Number of ticks simulated (Tick)
finalTick                                264858836706                       # Number of ticks from beginning of simulation (restored from checkpoints and never reset) (Tick)
simFreq                                  1000000000000                       # The number of ticks per simulated second ((Tick/Second))
hostSeconds                                    557.34                       # Real time elapsed on the host (Second)
hostTickRate                                475221788                       # The number of ticks simulated per host second (ticks/s) ((Tick/Second))
hostMemory                                    8569560                       # Number of bytes of host memory used (Byte)
simInsts                                    120190277                       # Number of instructions simulated (Count)
simOps                                      121238904                       # Number of ops (including micro ops) simulated (Count)
hostInstRate                                   215651                       # Simulator instruction rate (inst/s) ((Count/Second))
hostOpRate                                     217532                       # Simulator op (including micro ops) rate (op/s) ((Count/Second))
board.cache_hierarchy.l1_dcaches.demandHits::processor.cores.core.data     52714531                       # number of demand (read+write) hits (Count)
board.cache_hierarchy.l1_dcaches.demandHits::total     52714531                       # number of demand (read+write) hits (Count)
board.cache_hierarchy.l1_dcaches.overallHits::processor.cores.core.data     52714531                       # number of overall hits (Count)
board.cache_hierarchy.l1_dcaches.overallHits::total     52714531                       # number of overall hits (Count)
board.cache_hierarchy.l1_dcaches.demandMisses::processor.cores.core.data      5771987                       # number of demand (read+write) misses (Count)
board.cache_hierarchy.l1_dcaches.demandMisses::total      5771987                       # number of demand (read+write) misses (Count)
board.cache_hierarchy.l1_dcaches.overallMisses::processor.cores.core.data      5771987                       # number of overall misses (Count)
board.cache_hierarchy.l1_dcaches.overallMisses::total      5771987                       # number of overall misses (Count)
board.cache_hierarchy.l1_dcaches.demandMissLatency::processor.cores.core.data 497632126282                       # number of demand (read+write) miss ticks (Tick)
board.cache_hierarchy.l1_dcaches.demandMissLatency::total 497632126282                       # number of demand (read+write) miss ticks (Tick)
board.cache_hierarchy.l1_dcaches.overallMissLatency::processor.cores.core.data 497632126282                       # number of overall miss ticks (Tick)
board.cache_hierarchy.l1_dcaches.overallMissLatency::total 497632126282                       # number of overall miss ticks (Tick)
board.cache_hierarchy.l1_dcaches.demandAccesses::processor.cores.core.data     58486518                       # number of demand (read+write) accesses (Count)
board.cache_hierarchy.l1_dcaches.demandAccesses::total     58486518                       # number of demand (read+write) accesses (Count)
board.cache_hierarchy.l1_dcaches.overallAccesses::processor.cores.core.data     58486518                       # number of overall (read+write) accesses (Count)
board.cache_hierarchy.l1_dcaches.overallAccesses::total     58486518                       # number of overall (read+write) accesses (Count)
board.cache_hierarchy.l1_dcaches.demandMissRate::processor.cores.core.data     0.098689                       # miss rate for demand accesses (Ratio)
board.cache_hierarchy.l1_dcaches.demandMissRate::total     0.098689                       # miss rate for demand accesses (Ratio)
board.cache_hierarchy.l1_dcaches.overallMissRate::processor.cores.core.data     0.098689                       # miss rate for overall accesses (Ratio)
board.cache_hierarchy.l1_dcaches.overallMissRate::total     0.098689                       # miss rate for overall accesses (Ratio)
board.cache_hierarchy.l1_dcaches.demandAvgMissLatency::processor.cores.core.data 86215.046271                       # average overall miss latency in ticks ((Tick/Count))
board.cache_hierarchy.l1_dcaches.demandAvgMissLatency::total 86215.046271                       # average overall miss latency in ticks ((Tick/Count))
board.cache_hierarchy.l1_dcaches.overallAvgMissLatency::processor.cores.core.data 86215.046271                       # average overall miss latency ((Tick/Count))
board.cache_hierarchy.l1_dcaches.overallAvgMissLatency::total 86215.046271                       # average overall miss latency ((Tick/Count))
board.cache_hierarchy.l1_dcaches.blockedCycles::no_mshrs     67992890                       # number of cycles access was blocked (Cycle)
board.cache_hierarchy.l1_dcaches.blockedCycles::no_targets            0                       # number of cycles access was blocked (Cycle)
board.cache_hierarchy.l1_dcaches.blockedCauses::no_mshrs       961830                       # number of times access was blocked (Count)
board.cache_hierarchy.l1_dcaches.blockedCauses::no_targets            0                       # number of times access was blocked (Count)
board.cache_hierarchy.l1_dcaches.avgBlocked::no_mshrs    70.691172                       # average number of cycles each access was blocked ((Cycle/Count))
board.cache_hierarchy.l1_dcaches.avgBlocked::no_targets          nan                       # average number of cycles each access was blocked ((Cycle/Count))
board.cache_hierarchy.l1_dcaches.writebacks::writebacks      1531378                       # number of writebacks (Count)
board.cache_hierarchy.l1_dcaches.writebacks::total      1531378                       # number of writebacks (Count)
board.cache_hierarchy.l1_dcaches.demandMshrHits::processor.cores.core.data       599270                       # number of demand (read+write) MSHR hits (Count)
board.cache_hierarchy.l1_dcaches.demandMshrHits::total       599270                       # number of demand (read+write) MSHR hits (Count)
board.cache_hierarchy.l1_dcaches.overallMshrHits::processor.cores.core.data       599270                       # number of overall MSHR hits (Count)
board.cache_hierarchy.l1_dcaches.overallMshrHits::total       599270                       # number of overall MSHR hits (Count)
board.cache_hierarchy.l1_dcaches.demandMshrMisses::processor.cores.core.data      5172717                       # number of demand (read+write) MSHR misses (Count)
board.cache_hierarchy.l1_dcaches.demandMshrMisses::total      5172717                       # number of demand (read+write) MSHR misses (Count)
board.cache_hierarchy.l1_dcaches.overallMshrMisses::cache_hierarchy.l1_dcaches.prefetcher        60317                       # number of overall MSHR misses (Count)
board.cache_hierarchy.l1_dcaches.overallMshrMisses::processor.cores.core.data      5172717                       # number of overall MSHR misses (Count)
board.cache_hierarchy.l1_dcaches.overallMshrMisses::total      5233034                       # number of overall MSHR misses (Count)
board.cache_hierarchy.l1_dcaches.demandMshrMissLatency::processor.cores.core.data 443897029537                       # number of demand (read+write) MSHR miss ticks (Tick)
board.cache_hierarchy.l1_dcaches.demandMshrMissLatency::total 443897029537                       # number of demand (read+write) MSHR miss ticks (Tick)
board.cache_hierarchy.l1_dcaches.overallMshrMissLatency::cache_hierarchy.l1_dcaches.prefetcher   2848199070                       # number of overall MSHR miss ticks (Tick)
board.cache_hierarchy.l1_dcaches.overallMshrMissLatency::processor.cores.core.data 443897029537                       # number of overall MSHR miss ticks (Tick)
board.cache_hierarchy.l1_dcaches.overallMshrMissLatency::total 446745228607                       # number of overall MSHR miss ticks (Tick)
board.cache_hierarchy.l1_dcaches.demandMshrMissRate::processor.cores.core.data     0.088443                       # mshr miss ratio for demand accesses (Ratio)
board.cache_hierarchy.l1_dcaches.demandMshrMissRate::total     0.088443                       # mshr miss ratio for demand accesses (Ratio)
board.cache_hierarchy.l1_dcaches.overallMshrMissRate::cache_hierarchy.l1_dcaches.prefetcher          inf                       # mshr miss ratio for overall accesses (Ratio)
board.cache_hierarchy.l1_dcaches.overallMshrMissRate::processor.cores.core.data     0.088443                       # mshr miss ratio for overall accesses (Ratio)
board.cache_hierarchy.l1_dcaches.overallMshrMissRate::total     0.089474                       # mshr miss ratio for overall accesses (Ratio)
board.cache_hierarchy.l1_dcaches.demandAvgMshrMissLatency::processor.cores.core.data 85815.061898                       # average overall mshr miss latency ((Tick/Count))
board.cache_hierarchy.l1_dcaches.demandAvgMshrMissLatency::total 85815.061898                       # average overall mshr miss latency ((Tick/Count))
board.cache_hierarchy.l1_dcaches.overallAvgMshrMissLatency::cache_hierarchy.l1_dcaches.prefetcher 47220.502843                       # average overall mshr miss latency ((Tick/Count))
board.cache_hierarchy.l1_dcaches.overallAvgMshrMissLatency::processor.cores.core.data 85815.061898                       # average overall mshr miss latency ((Tick/Count))
board.cache_hierarchy.l1_dcaches.overallAvgMshrMissLatency::total 85370.213266                       # average overall mshr miss latency ((Tick/Count))
board.cache_hierarchy.l1_dcaches.replacements      5232526                       # number of replacements (Count)
board.cache_hierarchy.l1_dcaches.HardPFReq.mshrMisses::cache_hierarchy.l1_dcaches.prefetcher        60317                       # number of HardPFReq MSHR misses (Count)
board.cache_hierarchy.l1_dcaches.HardPFReq.mshrMisses::total        60317                       # number of HardPFReq MSHR misses (Count)
board.cache_hierarchy.l1_dcaches.HardPFReq.mshrMissLatency::cache_hierarchy.l1_dcaches.prefetcher   2848199070                       # number of HardPFReq MSHR miss ticks (Tick)
board.cache_hierarchy.l1_dcaches.HardPFReq.mshrMissLatency::total   2848199070                       # number of HardPFReq MSHR miss ticks (Tick)
board.cache_hierarchy.l1_dcaches.HardPFReq.mshrMissRate::cache_hierarchy.l1_dcaches.prefetcher          inf                       # mshr miss rate for HardPFReq accesses (Ratio)
board.cache_hierarchy.l1_dcaches.HardPFReq.mshrMissRate::total          inf                       # mshr miss rate for HardPFReq accesses (Ratio)
board.cache_hierarchy.l1_dcaches.HardPFReq.avgMshrMissLatency::cache_hierarchy.l1_dcaches.prefetcher 47220.502843                       # average HardPFReq mshr miss latency ((Tick/Count))
board.cache_hierarchy.l1_dcaches.HardPFReq.avgMshrMissLatency::total 47220.502843                       # average HardPFReq mshr miss latency ((Tick/Count))
board.cache_hierarchy.l1_dcaches.LoadLockedReq.hits::processor.cores.core.data      1014991                       # number of LoadLockedReq hits (Count)
board.cache_hierarchy.l1_dcaches.LoadLockedReq.hits::total      1014991                       # number of LoadLockedReq hits (Count)
board.cache_hierarchy.l1_dcaches.LoadLockedReq.misses::processor.cores.core.data            5                       # number of LoadLockedReq misses (Count)
board.cache_hierarchy.l1_dcaches.LoadLockedReq.misses::total            5                       # number of LoadLockedReq misses (Count)
board.cache_hierarchy.l1_dcaches.LoadLockedReq.missLatency::processor.cores.core.data       521811                       # number of LoadLockedReq miss ticks (Tick)
board.cache_hierarchy.l1_dcaches.LoadLockedReq.missLatency::total       521811                       # number of LoadLockedReq miss ticks (Tick)
board.cache_hierarchy.l1_dcaches.LoadLockedReq.accesses::processor.cores.core.data      1014996                       # number of LoadLockedReq accesses(hits+misses) (Count)
board.cache_hierarchy.l1_dcaches.LoadLockedReq.accesses::total      1014996                       # number of LoadLockedReq accesses(hits+misses) (Count)
board.cache_hierarchy.l1_dcaches.LoadLockedReq.missRate::processor.cores.core.data     0.000005                       # miss rate for LoadLockedReq accesses (Ratio)
board.cache_hierarchy.l1_dcaches.LoadLockedReq.missRate::total     0.000005                       # miss rate for LoadLockedReq accesses (Ratio)
board.cache_hierarchy.l1_dcaches.LoadLockedReq.avgMissLatency::processor.cores.core.data 104362.200000                       # average LoadLockedReq miss latency ((Tick/Count))
board.cache_hierarchy.l1_dcaches.LoadLockedReq.avgMissLatency::total 104362.200000                       # average LoadLockedReq miss latency ((Tick/Count))
board.cache_hierarchy.l1_dcaches.LoadLockedReq.mshrHits::processor.cores.core.data            2                       # number of LoadLockedReq MSHR hits (Count)
board.cache_hierarchy.l1_dcaches.LoadLockedReq.mshrHits::total            2                       # number of LoadLockedReq MSHR hits (Count)
board.cache_hierarchy.l1_dcaches.LoadLockedReq.mshrMisses::processor.cores.core.data            3                       # number of LoadLockedReq MSHR misses (Count)
board.cache_hierarchy.l1_dcaches.LoadLockedReq.mshrMisses::total            3                       # number of LoadLockedReq MSHR misses (Count)
board.cache_hierarchy.l1_dcaches.LoadLockedReq.mshrMissLatency::processor.cores.core.data       242091                       # number of LoadLockedReq MSHR miss ticks (Tick)
board.cache_hierarchy.l1_dcaches.LoadLockedReq.mshrMissLatency::total       242091                       # number of LoadLockedReq MSHR miss ticks (Tick)
board.cache_hierarchy.l1_dcaches.LoadLockedReq.mshrMissRate::processor.cores.core.data     0.000003                       # mshr miss rate for LoadLockedReq accesses (Ratio)
board.cache_hierarchy.l1_dcaches.LoadLockedReq.mshrMissRate::total     0.000003                       # mshr miss rate for LoadLockedReq accesses (Ratio)
board.cache_hierarchy.l1_dcaches.LoadLockedReq.avgMshrMissLatency::processor.cores.core.data        80697                       # average LoadLockedReq mshr miss latency ((Tick/Count))
board.cache_hierarchy.l1_dcaches.LoadLockedReq.avgMshrMissLatency::total        80697                       # average LoadLockedReq mshr miss latency ((Tick/Count))
board.cache_hierarchy.l1_dcaches.ReadReq.hits::processor.cores.core.data     35940637                       # number of ReadReq hits (Count)
board.cache_hierarchy.l1_dcaches.ReadReq.hits::total     35940637                       # number of ReadReq hits (Count)
board.cache_hierarchy.l1_dcaches.ReadReq.misses::processor.cores.core.data      4713326                       # number of ReadReq misses (Count)
board.cache_hierarchy.l1_dcaches.ReadReq.misses::total      4713326                       # number of ReadReq misses (Count)
board.cache_hierarchy.l1_dcaches.ReadReq.missLatency::processor.cores.core.data 396079737786                       # number of ReadReq miss ticks (Tick)
board.cache_hierarchy.l1_dcaches.ReadReq.missLatency::total 396079737786                       # number of ReadReq miss ticks (Tick)
board.cache_hierarchy.l1_dcaches.ReadReq.accesses::processor.cores.core.data     40653963                       # number of ReadReq accesses(hits+misses) (Count)
board.cache_hierarchy.l1_dcaches.ReadReq.accesses::total     40653963                       # number of ReadReq accesses(hits+misses) (Count)
board.cache_hierarchy.l1_dcaches.ReadReq.missRate::processor.cores.core.data     0.115938                       # miss rate for ReadReq accesses (Ratio)
board.cache_hierarchy.l1_dcaches.ReadReq.missRate::total     0.115938                       # miss rate for ReadReq accesses (Ratio)
board.cache_hierarchy.l1_dcaches.ReadReq.avgMissLatency::processor.cores.core.data 84034.021365                       # average ReadReq miss latency ((Tick/Count))
board.cache_hierarchy.l1_dcaches.ReadReq.avgMissLatency::total 84034.021365                       # average ReadReq miss latency ((Tick/Count))
board.cache_hierarchy.l1_dcaches.ReadReq.mshrHits::processor.cores.core.data       526738                       # number of ReadReq MSHR hits (Count)
board.cache_hierarchy.l1_dcaches.ReadReq.mshrHits::total       526738                       # number of ReadReq MSHR hits (Count)
board.cache_hierarchy.l1_dcaches.ReadReq.mshrMisses::processor.cores.core.data      4186588                       # number of ReadReq MSHR misses (Count)
board.cache_hierarchy.l1_dcaches.ReadReq.mshrMisses::total      4186588                       # number of ReadReq MSHR misses (Count)
board.cache_hierarchy.l1_dcaches.ReadReq.mshrMissLatency::processor.cores.core.data 347263767954                       # number of ReadReq MSHR miss ticks (Tick)
board.cache_hierarchy.l1_dcaches.ReadReq.mshrMissLatency::total 347263767954                       # number of ReadReq MSHR miss ticks (Tick)
board.cache_hierarchy.l1_dcaches.ReadReq.mshrMissRate::processor.cores.core.data     0.102981                       # mshr miss rate for ReadReq accesses (Ratio)
board.cache_hierarchy.l1_dcaches.ReadReq.mshrMissRate::total     0.102981                       # mshr miss rate for ReadReq accesses (Ratio)
board.cache_hierarchy.l1_dcaches.ReadReq.avgMshrMissLatency::processor.cores.core.data 82946.726058                       # average ReadReq mshr miss latency ((Tick/Count))
board.cache_hierarchy.l1_dcaches.ReadReq.avgMshrMissLatency::total 82946.726058                       # average ReadReq mshr miss latency ((Tick/Count))
board.cache_hierarchy.l1_dcaches.StoreCondReq.hits::processor.cores.core.data       524299                       # number of StoreCondReq hits (Count)
board.cache_hierarchy.l1_dcaches.StoreCondReq.hits::total       524299                       # number of StoreCondReq hits (Count)
board.cache_hierarchy.l1_dcaches.StoreCondReq.accesses::processor.cores.core.data       524299                       # number of StoreCondReq accesses(hits+misses) (Count)
board.cache_hierarchy.l1_dcaches.StoreCondReq.accesses::total       524299                       # number of StoreCondReq accesses(hits+misses) (Count)
board.cache_hierarchy.l1_dcaches.SwapReq.hits::processor.cores.core.data       524312                       # number of SwapReq hits (Count)
board.cache_hierarchy.l1_dcaches.SwapReq.hits::total       524312                       # number of SwapReq hits (Count)
board.cache_hierarchy.l1_dcaches.SwapReq.misses::processor.cores.core.data            1                       # number of SwapReq misses (Count)
board.cache_hierarchy.l1_dcaches.SwapReq.misses::total            1                       # number of SwapReq misses (Count)
board.cache_hierarchy.l1_dcaches.SwapReq.missLatency::processor.cores.core.data        88245                       # number of SwapReq miss ticks (Tick)
board.cache_hierarchy.l1_dcaches.SwapReq.missLatency::total        88245                       # number of SwapReq miss ticks (Tick)
board.cache_hierarchy.l1_dcaches.SwapReq.accesses::processor.cores.core.data       524313                       # number of SwapReq accesses(hits+misses) (Count)
board.cache_hierarchy.l1_dcaches.SwapReq.accesses::total       524313                       # number of SwapReq accesses(hits+misses) (Count)
board.cache_hierarchy.l1_dcaches.SwapReq.missRate::processor.cores.core.data     0.000002                       # miss rate for SwapReq accesses (Ratio)
board.cache_hierarchy.l1_dcaches.SwapReq.missRate::total     0.000002                       # miss rate for SwapReq accesses (Ratio)
board.cache_hierarchy.l1_dcaches.SwapReq.avgMissLatency::processor.cores.core.data        88245                       # average SwapReq miss latency ((Tick/Count))
board.cache_hierarchy.l1_dcaches.SwapReq.avgMissLatency::total        88245                       # average SwapReq miss latency ((Tick/Count))
board.cache_hierarchy.l1_dcaches.SwapReq.mshrMisses::processor.cores.core.data            1                       # number of SwapReq MSHR misses (Count)
board.cache_hierarchy.l1_dcaches.SwapReq.mshrMisses::total            1                       # number of SwapReq MSHR misses (Count)
board.cache_hierarchy.l1_dcaches.SwapReq.mshrMissLatency::processor.cores.core.data        87579                       # number of SwapReq MSHR miss ticks (Tick)
board.cache_hierarchy.l1_dcaches.SwapReq.mshrMissLatency::total        87579                       # number of SwapReq MSHR miss ticks (Tick)
board.cache_hierarchy.l1_dcaches.SwapReq.mshrMissRate::processor.cores.core.data     0.000002                       # mshr miss rate for SwapReq accesses (Ratio)
board.cache_hierarchy.l1_dcaches.SwapReq.mshrMissRate::total     0.000002                       # mshr miss rate for SwapReq accesses (Ratio)
board.cache_hierarchy.l1_dcaches.SwapReq.avgMshrMissLatency::processor.cores.core.data        87579                       # average SwapReq mshr miss latency ((Tick/Count))
board.cache_hierarchy.l1_dcaches.SwapReq.avgMshrMissLatency::total        87579                       # average SwapReq mshr miss latency ((Tick/Count))
board.cache_hierarchy.l1_dcaches.WriteReq.hits::processor.cores.core.data     16773894                       # number of WriteReq hits (Count)
board.cache_hierarchy.l1_dcaches.WriteReq.hits::total     16773894                       # number of WriteReq hits (Count)
board.cache_hierarchy.l1_dcaches.WriteReq.misses::processor.cores.core.data      1058661                       # number of WriteReq misses (Count)
board.cache_hierarchy.l1_dcaches.WriteReq.misses::total      1058661                       # number of WriteReq misses (Count)
board.cache_hierarchy.l1_dcaches.WriteReq.missLatency::processor.cores.core.data 101552388496                       # number of WriteReq miss ticks (Tick)
board.cache_hierarchy.l1_dcaches.WriteReq.missLatency::total 101552388496                       # number of WriteReq miss ticks (Tick)
board.cache_hierarchy.l1_dcaches.WriteReq.accesses::processor.cores.core.data     17832555                       # number of WriteReq accesses(hits+misses) (Count)
board.cache_hierarchy.l1_dcaches.WriteReq.accesses::total     17832555                       # number of WriteReq accesses(hits+misses) (Count)
board.cache_hierarchy.l1_dcaches.WriteReq.missRate::processor.cores.core.data     0.059367                       # miss rate for WriteReq accesses (Ratio)
board.cache_hierarchy.l1_dcaches.WriteReq.missRate::total     0.059367                       # miss rate for WriteReq accesses (Ratio)
board.cache_hierarchy.l1_dcaches.WriteReq.avgMissLatency::processor.cores.core.data 95925.313671                       # average WriteReq miss latency ((Tick/Count))
board.cache_hierarchy.l1_dcaches.WriteReq.avgMissLatency::total 95925.313671                       # average WriteReq miss latency ((Tick/Count))
board.cache_hierarchy.l1_dcaches.WriteReq.mshrHits::processor.cores.core.data        72532                       # number of WriteReq MSHR hits (Count)
board.cache_hierarchy.l1_dcaches.WriteReq.mshrHits::total        72532                       # number of WriteReq MSHR hits (Count)
board.cache_hierarchy.l1_dcaches.WriteReq.mshrMisses::processor.cores.core.data       986129                       # number of WriteReq MSHR misses (Count)
board.cache_hierarchy.l1_dcaches.WriteReq.mshrMisses::total       986129                       # number of WriteReq MSHR misses (Count)
board.cache_hierarchy.l1_dcaches.WriteReq.mshrMissLatency::processor.cores.core.data  96633261583                       # number of WriteReq MSHR miss ticks (Tick)
board.cache_hierarchy.l1_dcaches.WriteReq.mshrMissLatency::total  96633261583                       # number of WriteReq MSHR miss ticks (Tick)
board.cache_hierarchy.l1_dcaches.WriteReq.mshrMissRate::processor.cores.core.data     0.055299                       # mshr miss rate for WriteReq accesses (Ratio)
board.cache_hierarchy.l1_dcaches.WriteReq.mshrMissRate::total     0.055299                       # mshr miss rate for WriteReq accesses (Ratio)
board.cache_hierarchy.l1_dcaches.WriteReq.avgMshrMissLatency::processor.cores.core.data 97992.515769                       # average WriteReq mshr miss latency ((Tick/Count))
board.cache_hierarchy.l1_dcaches.WriteReq.avgMshrMissLatency::total 97992.515769                       # average WriteReq mshr miss latency ((Tick/Count))
board.cache_hierarchy.l1_dcaches.power_state.pwrStateResidencyTicks::UNDEFINED 264858836706                       # Cumulative time (in ticks) in various power states (Tick)
board.cache_hierarchy.l1_dcaches.prefetcher.demandMshrMisses      5172717                       # demands not covered by prefetchs (Count)
board.cache_hierarchy.l1_dcaches.prefetcher.pfIssued       146756                       # number of hwpf issued (Count)
board.cache_hierarchy.l1_dcaches.prefetcher.pfUnused          179                       # number of HardPF blocks evicted w/o reference (Count)
board.cache_hierarchy.l1_dcaches.prefetcher.pfUseful        58584                       # number of useful prefetch (Count)
board.cache_hierarchy.l1_dcaches.prefetcher.pfUsefulButMiss            0                       # number of hit on prefetch but cache block is not in an usable state (Count)
board.cache_hierarchy.l1_dcaches.prefetcher.accuracy     0.399193                       # accuracy of the prefetcher (Count)
board.cache_hierarchy.l1_dcaches.prefetcher.coverage     0.011199                       # coverage brought by this prefetcher (Count)
board.cache_hierarchy.l1_dcaches.prefetcher.pfHitInCache        86291                       # number of prefetches hitting in cache (Count)
board.cache_hierarchy.l1_dcaches.prefetcher.pfHitInMSHR          148                       # number of prefetches hitting in a MSHR (Count)
board.cache_hierarchy.l1_dcaches.prefetcher.pfHitInWB            0                       # number of prefetches hit in the Write Buffer (Count)
board.cache_hierarchy.l1_dcaches.prefetcher.pfLate        86439                       # number of late prefetches (hitting in cache, MSHR or WB) (Count)
board.cache_hierarchy.l1_dcaches.prefetcher.pfIdentified      2132433                       # number of prefetch candidates identified (Count)
board.cache_hierarchy.l1_dcaches.prefetcher.pfBufferHit      1031978                       # number of redundant prefetches already in prefetch queue (Count)
board.cache_hierarchy.l1_dcaches.prefetcher.pfInCache            0                       # number of redundant prefetches already in cache/mshr dropped (Count)
board.cache_hierarchy.l1_dcaches.prefetcher.pfRemovedDemand       507765                       # number of prefetches dropped due to a demand for the same address (Count)
board.cache_hierarchy.l1_dcaches.prefetcher.pfRemovedFull            0                       # number of prefetches dropped due to prefetch queue size (Count)
board.cache_hierarchy.l1_dcaches.prefetcher.pfSpanPage        86715                       # number of prefetches that crossed the page (Count)
board.cache_hierarchy.l1_dcaches.prefetcher.pfUsefulSpanPage        11396                       # number of prefetches that is useful and crossed the page (Count)
board.cache_hierarchy.l1_dcaches.prefetcher.power_state.pwrStateResidencyTicks::UNDEFINED 264858836706                       # Cumulative time (in ticks) in various power states (Tick)
board.cache_hierarchy.l1_dcaches.tags.tagsInUse   511.980898                       # Average ticks per tags in use ((Tick/Count))
board.cache_hierarchy.l1_dcaches.tags.totalRefs     60011171                       # Total number of references to valid blocks. (Count)
board.cache_hierarchy.l1_dcaches.tags.sampledRefs      5233038                       # Sample count of references to valid blocks. (Count)
board.cache_hierarchy.l1_dcaches.tags.avgRefs    11.467750                       # Average number of references to valid blocks. ((Count/Count))
board.cache_hierarchy.l1_dcaches.tags.warmupTick       274392                       # The tick when the warmup percentage was hit. (Tick)
board.cache_hierarchy.l1_dcaches.tags.occupancies::cache_hierarchy.l1_dcaches.prefetcher     6.497772                       # Average occupied blocks per tick, per requestor ((Count/Tick))
board.cache_hierarchy.l1_dcaches.tags.occupancies::processor.cores.core.data   505.483126                       # Average occupied blocks per tick, per requestor ((Count/Tick))
board.cache_hierarchy.l1_dcaches.tags.avgOccs::cache_hierarchy.l1_dcaches.prefetcher     0.012691                       # Average percentage of cache occupancy ((Ratio/Tick))
board.cache_hierarchy.l1_dcaches.tags.avgOccs::processor.cores.core.data     0.987272                       # Average percentage of cache occupancy ((Ratio/Tick))
board.cache_hierarchy.l1_dcaches.tags.avgOccs::total     0.999963                       # Average percentage of cache occupancy ((Ratio/Tick))
board.cache_hierarchy.l1_dcaches.tags.occupanciesTaskId::1024          512                       # Occupied blocks per task id (Count)
board.cache_hierarchy.l1_dcaches.tags.ageTaskId_1024::0          152                       # Occupied blocks per task id, per block age (Count)
board.cache_hierarchy.l1_dcaches.tags.ageTaskId_1024::1          359                       # Occupied blocks per task id, per block age (Count)
board.cache_hierarchy.l1_dcaches.tags.ageTaskId_1024::4            1                       # Occupied blocks per task id, per block age (Count)
board.cache_hierarchy.l1_dcaches.tags.ratioOccsTaskId::1024            1                       # Ratio of occupied blocks and all blocks, per task id (Ratio)
board.cache_hierarchy.l1_dcaches.tags.tagAccesses    489634046                       # Number of tag accesses (Count)
board.cache_hierarchy.l1_dcaches.tags.dataAccesses    489634046                       # Number of data accesses (Count)
board.cache_hierarchy.l1_dcaches.tags.power_state.pwrStateResidencyTicks::UNDEFINED 264858836706                       # Cumulative time (in ticks) in various power states (Tick)
board.cache_hierarchy.l1_icaches.demandHits::processor.cores.core.inst     21356768                       # number of demand (read+write) hits (Count)
board.cache_hierarchy.l1_icaches.demandHits::total     21356768                       # number of demand (read+write) hits (Count)
board.cache_hierarchy.l1_icaches.overallHits::processor.cores.core.inst     21356768                       # number of overall hits (Count)
board.cache_hierarchy.l1_icaches.overallHits::total     21356768                       # number of overall hits (Count)
board.cache_hierarchy.l1_icaches.demandMisses::processor.cores.core.inst          630                       # number of demand (read+write) misses (Count)
board.cache_hierarchy.l1_icaches.demandMisses::total          630                       # number of demand (read+write) misses (Count)
board.cache_hierarchy.l1_icaches.overallMisses::processor.cores.core.inst          630                       # number of overall misses (Count)
board.cache_hierarchy.l1_icaches.overallMisses::total          630                       # number of overall misses (Count)
board.cache_hierarchy.l1_icaches.demandMissLatency::processor.cores.core.inst     24899076                       # number of demand (read+write) miss ticks (Tick)
board.cache_hierarchy.l1_icaches.demandMissLatency::total     24899076                       # number of demand (read+write) miss ticks (Tick)
board.cache_hierarchy.l1_icaches.overallMissLatency::processor.cores.core.inst     24899076                       # number of overall miss ticks (Tick)
board.cache_hierarchy.l1_icaches.overallMissLatency::total     24899076                       # number of overall miss ticks (Tick)
board.cache_hierarchy.l1_icaches.demandAccesses::processor.cores.core.inst     21357398                       # number of demand (read+write) accesses (Count)
board.cache_hierarchy.l1_icaches.demandAccesses::total     21357398                       # number of demand (read+write) accesses (Count)
board.cache_hierarchy.l1_icaches.overallAccesses::processor.cores.core.inst     21357398                       # number of overall (read+write) accesses (Count)
board.cache_hierarchy.l1_icaches.overallAccesses::total     21357398                       # number of overall (read+write) accesses (Count)
board.cache_hierarchy.l1_icaches.demandMissRate::processor.cores.core.inst     0.000029                       # miss rate for demand accesses (Ratio)
board.cache_hierarchy.l1_icaches.demandMissRate::total     0.000029                       # miss rate for demand accesses (Ratio)
board.cache_hierarchy.l1_icaches.overallMissRate::processor.cores.core.inst     0.000029                       # miss rate for overall accesses (Ratio)
board.cache_hierarchy.l1_icaches.overallMissRate::total     0.000029                       # miss rate for overall accesses (Ratio)
board.cache_hierarchy.l1_icaches.demandAvgMissLatency::processor.cores.core.inst 39522.342857                       # average overall miss latency in ticks ((Tick/Count))
board.cache_hierarchy.l1_icaches.demandAvgMissLatency::total 39522.342857                       # average overall miss latency in ticks ((Tick/Count))
board.cache_hierarchy.l1_icaches.overallAvgMissLatency::processor.cores.core.inst 39522.342857                       # average overall miss latency ((Tick/Count))
board.cache_hierarchy.l1_icaches.overallAvgMissLatency::total 39522.342857                       # average overall miss latency ((Tick/Count))
board.cache_hierarchy.l1_icaches.blockedCycles::no_mshrs          133                       # number of cycles access was blocked (Cycle)
board.cache_hierarchy.l1_icaches.blockedCycles::no_targets            0                       # number of cycles access was blocked (Cycle)
board.cache_hierarchy.l1_icaches.blockedCauses::no_mshrs            5                       # number of times access was blocked (Count)
board.cache_hierarchy.l1_icaches.blockedCauses::no_targets            0                       # number of times access was blocked (Count)
board.cache_hierarchy.l1_icaches.avgBlocked::no_mshrs    26.600000                       # average number of cycles each access was blocked ((Cycle/Count))
board.cache_hierarchy.l1_icaches.avgBlocked::no_targets          nan                       # average number of cycles each access was blocked ((Cycle/Count))
board.cache_hierarchy.l1_icaches.demandMshrHits::processor.cores.core.inst          115                       # number of demand (read+write) MSHR hits (Count)
board.cache_hierarchy.l1_icaches.demandMshrHits::total          115                       # number of demand (read+write) MSHR hits (Count)
board.cache_hierarchy.l1_icaches.overallMshrHits::processor.cores.core.inst          115                       # number of overall MSHR hits (Count)
board.cache_hierarchy.l1_icaches.overallMshrHits::total          115                       # number of overall MSHR hits (Count)
board.cache_hierarchy.l1_icaches.demandMshrMisses::processor.cores.core.inst          515                       # number of demand (read+write) MSHR misses (Count)
board.cache_hierarchy.l1_icaches.demandMshrMisses::total          515                       # number of demand (read+write) MSHR misses (Count)
board.cache_hierarchy.l1_icaches.overallMshrMisses::processor.cores.core.inst          515                       # number of overall MSHR misses (Count)
board.cache_hierarchy.l1_icaches.overallMshrMisses::total          515                       # number of overall MSHR misses (Count)
board.cache_hierarchy.l1_icaches.demandMshrMissLatency::processor.cores.core.inst     19279368                       # number of demand (read+write) MSHR miss ticks (Tick)
board.cache_hierarchy.l1_icaches.demandMshrMissLatency::total     19279368                       # number of demand (read+write) MSHR miss ticks (Tick)
board.cache_hierarchy.l1_icaches.overallMshrMissLatency::processor.cores.core.inst     19279368                       # number of overall MSHR miss ticks (Tick)
board.cache_hierarchy.l1_icaches.overallMshrMissLatency::total     19279368                       # number of overall MSHR miss ticks (Tick)
board.cache_hierarchy.l1_icaches.demandMshrMissRate::processor.cores.core.inst     0.000024                       # mshr miss ratio for demand accesses (Ratio)
board.cache_hierarchy.l1_icaches.demandMshrMissRate::total     0.000024                       # mshr miss ratio for demand accesses (Ratio)
board.cache_hierarchy.l1_icaches.overallMshrMissRate::processor.cores.core.inst     0.000024                       # mshr miss ratio for overall accesses (Ratio)
board.cache_hierarchy.l1_icaches.overallMshrMissRate::total     0.000024                       # mshr miss ratio for overall accesses (Ratio)
board.cache_hierarchy.l1_icaches.demandAvgMshrMissLatency::processor.cores.core.inst 37435.666019                       # average overall mshr miss latency ((Tick/Count))
board.cache_hierarchy.l1_icaches.demandAvgMshrMissLatency::total 37435.666019                       # average overall mshr miss latency ((Tick/Count))
board.cache_hierarchy.l1_icaches.overallAvgMshrMissLatency::processor.cores.core.inst 37435.666019                       # average overall mshr miss latency ((Tick/Count))
board.cache_hierarchy.l1_icaches.overallAvgMshrMissLatency::total 37435.666019                       # average overall mshr miss latency ((Tick/Count))
board.cache_hierarchy.l1_icaches.replacements           64                       # number of replacements (Count)
board.cache_hierarchy.l1_icaches.ReadReq.hits::processor.cores.core.inst     21356768                       # number of ReadReq hits (Count)
board.cache_hierarchy.l1_icaches.ReadReq.hits::total     21356768                       # number of ReadReq hits (Count)
board.cache_hierarchy.l1_icaches.ReadReq.misses::processor.cores.core.inst          630                       # number of ReadReq misses (Count)
board.cache_hierarchy.l1_icaches.ReadReq.misses::total          630                       # number of ReadReq misses (Count)
board.cache_hierarchy.l1_icaches.ReadReq.missLatency::processor.cores.core.inst     24899076                       # number of ReadReq miss ticks (Tick)
board.cache_hierarchy.l1_icaches.ReadReq.missLatency::total     24899076                       # number of ReadReq miss ticks (Tick)
board.cache_hierarchy.l1_icaches.ReadReq.accesses::processor.cores.core.inst     21357398                       # number of ReadReq accesses(hits+misses) (Count)
board.cache_hierarchy.l1_icaches.ReadReq.accesses::total     21357398                       # number of ReadReq accesses(hits+misses) (Count)
board.cache_hierarchy.l1_icaches.ReadReq.missRate::processor.cores.core.inst     0.000029                       # miss rate for ReadReq accesses (Ratio)
board.cache_hierarchy.l1_icaches.ReadReq.missRate::total     0.000029                       # miss rate for ReadReq accesses (Ratio)
board.cache_hierarchy.l1_icaches.ReadReq.avgMissLatency::processor.cores.core.inst 39522.342857                       # average ReadReq miss latency ((Tick/Count))
board.cache_hierarchy.l1_icaches.ReadReq.avgMissLatency::total 39522.342857                       # average ReadReq miss latency ((Tick/Count))
board.cache_hierarchy.l1_icaches.ReadReq.mshrHits::processor.cores.core.inst          115                       # number of ReadReq MSHR hits (Count)
board.cache_hierarchy.l1_icaches.ReadReq.mshrHits::total          115                       # number of ReadReq MSHR hits (Count)
board.cache_hierarchy.l1_icaches.ReadReq.mshrMisses::processor.cores.core.inst          515                       # number of ReadReq MSHR misses (Count)
board.cache_hierarchy.l1_icaches.ReadReq.mshrMisses::total          515                       # number of ReadReq MSHR misses (Count)
board.cache_hierarchy.l1_icaches.ReadReq.mshrMissLatency::processor.cores.core.inst     19279368                       # number of ReadReq MSHR miss ticks (Tick)
board.cache_hierarchy.l1_icaches.ReadReq.mshrMissLatency::total     19279368                       # number of ReadReq MSHR miss ticks (Tick)
board.cache_hierarchy.l1_icaches.ReadReq.mshrMissRate::processor.cores.core.inst     0.000024                       # mshr miss rate for ReadReq accesses (Ratio)
board.cache_hierarchy.l1_icaches.ReadReq.mshrMissRate::total     0.000024                       # mshr miss rate for ReadReq accesses (Ratio)
board.cache_hierarchy.l1_icaches.ReadReq.avgMshrMissLatency::processor.cores.core.inst 37435.666019                       # average ReadReq mshr miss latency ((Tick/Count))
board.cache_hierarchy.l1_icaches.ReadReq.avgMshrMissLatency::total 37435.666019                       # average ReadReq mshr miss latency ((Tick/Count))
board.cache_hierarchy.l1_icaches.power_state.pwrStateResidencyTicks::UNDEFINED 264858836706                       # Cumulative time (in ticks) in various power states (Tick)
board.cache_hierarchy.l1_icaches.tags.tagsInUse   359.725199                       # Average ticks per tags in use ((Tick/Count))
board.cache_hierarchy.l1_icaches.tags.totalRefs     21357283                       # Total number of references to valid blocks. (Count)
board.cache_hierarchy.l1_icaches.tags.sampledRefs          515                       # Sample count of references to valid blocks. (Count)
board.cache_hierarchy.l1_icaches.tags.avgRefs 41470.452427                       # Average number of references to valid blocks. ((Count/Count))
board.cache_hierarchy.l1_icaches.tags.warmupTick        86580                       # The tick when the warmup percentage was hit. (Tick)
board.cache_hierarchy.l1_icaches.tags.occupancies::processor.cores.core.inst   359.725199                       # Average occupied blocks per tick, per requestor ((Count/Tick))
board.cache_hierarchy.l1_icaches.tags.avgOccs::processor.cores.core.inst     0.702588                       # Average percentage of cache occupancy ((Ratio/Tick))
board.cache_hierarchy.l1_icaches.tags.avgOccs::total     0.702588                       # Average percentage of cache occupancy ((Ratio/Tick))
board.cache_hierarchy.l1_icaches.tags.occupanciesTaskId::1024          451                       # Occupied blocks per task id (Count)
board.cache_hierarchy.l1_icaches.tags.ageTaskId_1024::0          133                       # Occupied blocks per task id, per block age (Count)
board.cache_hierarchy.l1_icaches.tags.ageTaskId_1024::4          318                       # Occupied blocks per task id, per block age (Count)
board.cache_hierarchy.l1_icaches.tags.ratioOccsTaskId::1024     0.880859                       # Ratio of occupied blocks and all blocks, per task id (Ratio)
board.cache_hierarchy.l1_icaches.tags.tagAccesses    170859699                       # Number of tag accesses (Count)
board.cache_hierarchy.l1_icaches.tags.dataAccesses    170859699                       # Number of data accesses (Count)
board.cache_hierarchy.l1_icaches.tags.power_state.pwrStateResidencyTicks::UNDEFINED 264858836706                       # Cumulative time (in ticks) in various power states (Tick)
board.cache_hierarchy.l2_bus.transDist::ReadResp      4247423                       # Transaction distribution (Count)
board.cache_hierarchy.l2_bus.transDist::WritebackDirty      2855225                       # Transaction distribution (Count)
board.cache_hierarchy.l2_bus.transDist::CleanEvict     12696217                       # Transaction distribution (Count)
board.cache_hierarchy.l2_bus.transDist::HardPFReq      8698636                       # Transaction distribution (Count)
board.cache_hierarchy.l2_bus.transDist::ReadExReq       986130                       # Transaction distribution (Count)
board.cache_hierarchy.l2_bus.transDist::ReadExResp       986130                       # Transaction distribution (Count)
board.cache_hierarchy.l2_bus.transDist::ReadSharedReq      4247423                       # Transaction distribution (Count)
board.cache_hierarchy.l2_bus.pktCount_board.cache_hierarchy.l1_icaches.mem_side_port::board.cache_hierarchy.l2_cache.cpu_side_port         1094                       # Packet count per connected requestor and responder (Count)
board.cache_hierarchy.l2_bus.pktCount_board.cache_hierarchy.l1_dcaches.mem_side_port::board.cache_hierarchy.l2_cache.cpu_side_port     15698602                       # Packet count per connected requestor and responder (Count)
board.cache_hierarchy.l2_bus.pktCount::total     15699696                       # Packet count per connected requestor and responder (Count)
board.cache_hierarchy.l2_bus.pktSize_board.cache_hierarchy.l1_icaches.mem_side_port::board.cache_hierarchy.l2_cache.cpu_side_port        32960                       # Cumulative packet size per connected requestor and responder (Byte)
board.cache_hierarchy.l2_bus.pktSize_board.cache_hierarchy.l1_dcaches.mem_side_port::board.cache_hierarchy.l2_cache.cpu_side_port    432922624                       # Cumulative packet size per connected requestor and responder (Byte)
board.cache_hierarchy.l2_bus.pktSize::total    432955584                       # Cumulative packet size per connected requestor and responder (Byte)
board.cache_hierarchy.l2_bus.snoops          19017488                       # Total snoops (Count)
board.cache_hierarchy.l2_bus.snoopTraffic     84726208                       # Total snoop traffic (Byte)
board.cache_hierarchy.l2_bus.snoopFanout::samples     24251041                       # Request fanout histogram (Count)
board.cache_hierarchy.l2_bus.snoopFanout::mean     0.000064                       # Request fanout histogram (Count)
board.cache_hierarchy.l2_bus.snoopFanout::stdev     0.008023                       # Request fanout histogram (Count)
board.cache_hierarchy.l2_bus.snoopFanout::underflows            0      0.00%      0.00% # Request fanout histogram (Count)
board.cache_hierarchy.l2_bus.snoopFanout::0     24249480     99.99%     99.99% # Request fanout histogram (Count)
board.cache_hierarchy.l2_bus.snoopFanout::1         1561      0.01%    100.00% # Request fanout histogram (Count)
board.cache_hierarchy.l2_bus.snoopFanout::2            0      0.00%    100.00% # Request fanout histogram (Count)
board.cache_hierarchy.l2_bus.snoopFanout::overflows            0      0.00%    100.00% # Request fanout histogram (Count)
board.cache_hierarchy.l2_bus.snoopFanout::min_value            0                       # Request fanout histogram (Count)
board.cache_hierarchy.l2_bus.snoopFanout::max_value            1                       # Request fanout histogram (Count)
board.cache_hierarchy.l2_bus.snoopFanout::total     24251041                       # Request fanout histogram (Count)
board.cache_hierarchy.l2_bus.power_state.pwrStateResidencyTicks::UNDEFINED 264858836706                       # Cumulative time (in ticks) in various power states (Tick)
board.cache_hierarchy.l2_bus.reqLayer0.occupancy   4523366399                       # Layer occupancy (ticks) (Tick)
board.cache_hierarchy.l2_bus.reqLayer0.utilization          0.0                       # Layer utilization (Ratio)
board.cache_hierarchy.l2_bus.respLayer0.occupancy       514485                       # Layer occupancy (ticks) (Tick)
board.cache_hierarchy.l2_bus.respLayer0.utilization          0.0                       # Layer utilization (Ratio)
board.cache_hierarchy.l2_bus.respLayer1.occupancy   5227805294                       # Layer occupancy (ticks) (Tick)
board.cache_hierarchy.l2_bus.respLayer1.utilization          0.0                       # Layer utilization (Ratio)
board.cache_hierarchy.l2_bus.snoop_filter.totRequests     10466143                       # Total number of requests made to the snoop filter. (Count)
board.cache_hierarchy.l2_bus.snoop_filter.hitSingleRequests      5232590                       # Number of requests hitting in the snoop filter with a single holder of the requested data. (Count)
board.cache_hierarchy.l2_bus.snoop_filter.hitMultiRequests            1                       # Number of requests hitting in the snoop filter with multiple (>1) holders of the requested data. (Count)
board.cache_hierarchy.l2_bus.snoop_filter.totSnoops         1560                       # Total number of snoops made to the snoop filter. (Count)
board.cache_hierarchy.l2_bus.snoop_filter.hitSingleSnoops         1560                       # Number of snoops hitting in the snoop filter with a single holder of the requested data. (Count)
board.cache_hierarchy.l2_bus.snoop_filter.hitMultiSnoops            0                       # Number of snoops hitting in the snoop filter with multiple (>1) holders of the requested data. (Count)
board.cache_hierarchy.l2_cache.demandHits::cache_hierarchy.l1_dcaches.prefetcher        29680                       # number of demand (read+write) hits (Count)
board.cache_hierarchy.l2_cache.demandHits::processor.cores.core.inst          306                       # number of demand (read+write) hits (Count)
board.cache_hierarchy.l2_cache.demandHits::processor.cores.core.data       355881                       # number of demand (read+write) hits (Count)
board.cache_hierarchy.l2_cache.demandHits::total       385867                       # number of demand (read+write) hits (Count)
board.cache_hierarchy.l2_cache.overallHits::cache_hierarchy.l1_dcaches.prefetcher        29680                       # number of overall hits (Count)
board.cache_hierarchy.l2_cache.overallHits::processor.cores.core.inst          306                       # number of overall hits (Count)
board.cache_hierarchy.l2_cache.overallHits::processor.cores.core.data       355881                       # number of overall hits (Count)
board.cache_hierarchy.l2_cache.overallHits::total       385867                       # number of overall hits (Count)
board.cache_hierarchy.l2_cache.demandMisses::cache_hierarchy.l1_dcaches.prefetcher        30637                       # number of demand (read+write) misses (Count)
board.cache_hierarchy.l2_cache.demandMisses::processor.cores.core.inst          209                       # number of demand (read+write) misses (Count)
board.cache_hierarchy.l2_cache.demandMisses::processor.cores.core.data      4816840                       # number of demand (read+write) misses (Count)
board.cache_hierarchy.l2_cache.demandMisses::total      4847686                       # number of demand (read+write) misses (Count)
board.cache_hierarchy.l2_cache.overallMisses::cache_hierarchy.l1_dcaches.prefetcher        30637                       # number of overall misses (Count)
board.cache_hierarchy.l2_cache.overallMisses::processor.cores.core.inst          209                       # number of overall misses (Count)
board.cache_hierarchy.l2_cache.overallMisses::processor.cores.core.data      4816840                       # number of overall misses (Count)
board.cache_hierarchy.l2_cache.overallMisses::total      4847686                       # number of overall misses (Count)
board.cache_hierarchy.l2_cache.demandMissLatency::cache_hierarchy.l1_dcaches.prefetcher   2598646009                       # number of demand (read+write) miss ticks (Tick)
board.cache_hierarchy.l2_cache.demandMissLatency::processor.cores.core.inst     16620696                       # number of demand (read+write) miss ticks (Tick)
board.cache_hierarchy.l2_cache.demandMissLatency::processor.cores.core.data 435840153237                       # number of demand (read+write) miss ticks (Tick)
board.cache_hierarchy.l2_cache.demandMissLatency::total 438455419942                       # number of demand (read+write) miss ticks (Tick)
board.cache_hierarchy.l2_cache.overallMissLatency::cache_hierarchy.l1_dcaches.prefetcher   2598646009                       # number of overall miss ticks (Tick)
board.cache_hierarchy.l2_cache.overallMissLatency::processor.cores.core.inst     16620696                       # number of overall miss ticks (Tick)
board.cache_hierarchy.l2_cache.overallMissLatency::processor.cores.core.data 435840153237                       # number of overall miss ticks (Tick)
board.cache_hierarchy.l2_cache.overallMissLatency::total 438455419942                       # number of overall miss ticks (Tick)
board.cache_hierarchy.l2_cache.demandAccesses::cache_hierarchy.l1_dcaches.prefetcher        60317                       # number of demand (read+write) accesses (Count)
board.cache_hierarchy.l2_cache.demandAccesses::processor.cores.core.inst          515                       # number of demand (read+write) accesses (Count)
board.cache_hierarchy.l2_cache.demandAccesses::processor.cores.core.data      5172721                       # number of demand (read+write) accesses (Count)
board.cache_hierarchy.l2_cache.demandAccesses::total      5233553                       # number of demand (read+write) accesses (Count)
board.cache_hierarchy.l2_cache.overallAccesses::cache_hierarchy.l1_dcaches.prefetcher        60317                       # number of overall (read+write) accesses (Count)
board.cache_hierarchy.l2_cache.overallAccesses::processor.cores.core.inst          515                       # number of overall (read+write) accesses (Count)
board.cache_hierarchy.l2_cache.overallAccesses::processor.cores.core.data      5172721                       # number of overall (read+write) accesses (Count)
board.cache_hierarchy.l2_cache.overallAccesses::total      5233553                       # number of overall (read+write) accesses (Count)
board.cache_hierarchy.l2_cache.demandMissRate::cache_hierarchy.l1_dcaches.prefetcher     0.507933                       # miss rate for demand accesses (Ratio)
board.cache_hierarchy.l2_cache.demandMissRate::processor.cores.core.inst     0.405825                       # miss rate for demand accesses (Ratio)
board.cache_hierarchy.l2_cache.demandMissRate::processor.cores.core.data     0.931200                       # miss rate for demand accesses (Ratio)
board.cache_hierarchy.l2_cache.demandMissRate::total     0.926271                       # miss rate for demand accesses (Ratio)
board.cache_hierarchy.l2_cache.overallMissRate::cache_hierarchy.l1_dcaches.prefetcher     0.507933                       # miss rate for overall accesses (Ratio)
board.cache_hierarchy.l2_cache.overallMissRate::processor.cores.core.inst     0.405825                       # miss rate for overall accesses (Ratio)
board.cache_hierarchy.l2_cache.overallMissRate::processor.cores.core.data     0.931200                       # miss rate for overall accesses (Ratio)
board.cache_hierarchy.l2_cache.overallMissRate::total     0.926271                       # miss rate for overall accesses (Ratio)
board.cache_hierarchy.l2_cache.demandAvgMissLatency::cache_hierarchy.l1_dcaches.prefetcher 84820.511440                       # average overall miss latency in ticks ((Tick/Count))
board.cache_hierarchy.l2_cache.demandAvgMissLatency::processor.cores.core.inst 79524.861244                       # average overall miss latency in ticks ((Tick/Count))
board.cache_hierarchy.l2_cache.demandAvgMissLatency::processor.cores.core.data 90482.588842                       # average overall miss latency in ticks ((Tick/Count))
board.cache_hierarchy.l2_cache.demandAvgMissLatency::total 90446.332527                       # average overall miss latency in ticks ((Tick/Count))
board.cache_hierarchy.l2_cache.overallAvgMissLatency::cache_hierarchy.l1_dcaches.prefetcher 84820.511440                       # average overall miss latency ((Tick/Count))
board.cache_hierarchy.l2_cache.overallAvgMissLatency::processor.cores.core.inst 79524.861244                       # average overall miss latency ((Tick/Count))
board.cache_hierarchy.l2_cache.overallAvgMissLatency::processor.cores.core.data 90482.588842                       # average overall miss latency ((Tick/Count))
board.cache_hierarchy.l2_cache.overallAvgMissLatency::total 90446.332527                       # average overall miss latency ((Tick/Count))
board.cache_hierarchy.l2_cache.blockedCycles::no_mshrs            0                       # number of cycles access was blocked (Cycle)
board.cache_hierarchy.l2_cache.blockedCycles::no_targets            0                       # number of cycles access was blocked (Cycle)
board.cache_hierarchy.l2_cache.blockedCauses::no_mshrs            0                       # number of times access was blocked (Count)
board.cache_hierarchy.l2_cache.blockedCauses::no_targets            0                       # number of times access was blocked (Count)
board.cache_hierarchy.l2_cache.avgBlocked::no_mshrs          nan                       # average number of cycles each access was blocked ((Cycle/Count))
board.cache_hierarchy.l2_cache.avgBlocked::no_targets          nan                       # average number of cycles each access was blocked ((Cycle/Count))
board.cache_hierarchy.l2_cache.writebacks::writebacks      1323847                       # number of writebacks (Count)
board.cache_hierarchy.l2_cache.writebacks::total      1323847                       # number of writebacks (Count)
board.cache_hierarchy.l2_cache.demandMshrHits::cache_hierarchy.l1_dcaches.prefetcher        16541                       # number of demand (read+write) MSHR hits (Count)
board.cache_hierarchy.l2_cache.demandMshrHits::processor.cores.core.inst           52                       # number of demand (read+write) MSHR hits (Count)
board.cache_hierarchy.l2_cache.demandMshrHits::processor.cores.core.data       448141                       # number of demand (read+write) MSHR hits (Count)
board.cache_hierarchy.l2_cache.demandMshrHits::total       464734                       # number of demand (read+write) MSHR hits (Count)
board.cache_hierarchy.l2_cache.overallMshrHits::cache_hierarchy.l1_dcaches.prefetcher        16541                       # number of overall MSHR hits (Count)
board.cache_hierarchy.l2_cache.overallMshrHits::processor.cores.core.inst           52                       # number of overall MSHR hits (Count)
board.cache_hierarchy.l2_cache.overallMshrHits::processor.cores.core.data       448141                       # number of overall MSHR hits (Count)
board.cache_hierarchy.l2_cache.overallMshrHits::total       464734                       # number of overall MSHR hits (Count)
board.cache_hierarchy.l2_cache.demandMshrMisses::cache_hierarchy.l1_dcaches.prefetcher        14096                       # number of demand (read+write) MSHR misses (Count)
board.cache_hierarchy.l2_cache.demandMshrMisses::processor.cores.core.inst          157                       # number of demand (read+write) MSHR misses (Count)
board.cache_hierarchy.l2_cache.demandMshrMisses::processor.cores.core.data      4368699                       # number of demand (read+write) MSHR misses (Count)
board.cache_hierarchy.l2_cache.demandMshrMisses::total      4382952                       # number of demand (read+write) MSHR misses (Count)
board.cache_hierarchy.l2_cache.overallMshrMisses::cache_hierarchy.l1_dcaches.prefetcher        14096                       # number of overall MSHR misses (Count)
board.cache_hierarchy.l2_cache.overallMshrMisses::cache_hierarchy.l2_cache.prefetcher      5943509                       # number of overall MSHR misses (Count)
board.cache_hierarchy.l2_cache.overallMshrMisses::processor.cores.core.inst          157                       # number of overall MSHR misses (Count)
board.cache_hierarchy.l2_cache.overallMshrMisses::processor.cores.core.data      4368699                       # number of overall MSHR misses (Count)
board.cache_hierarchy.l2_cache.overallMshrMisses::total     10326461                       # number of overall MSHR misses (Count)
board.cache_hierarchy.l2_cache.demandMshrMissLatency::cache_hierarchy.l1_dcaches.prefetcher   1072255223                       # number of demand (read+write) MSHR miss ticks (Tick)
board.cache_hierarchy.l2_cache.demandMshrMissLatency::processor.cores.core.inst     13189797                       # number of demand (read+write) MSHR miss ticks (Tick)
board.cache_hierarchy.l2_cache.demandMshrMissLatency::processor.cores.core.data 374890499235                       # number of demand (read+write) MSHR miss ticks (Tick)
board.cache_hierarchy.l2_cache.demandMshrMissLatency::total 375975944255                       # number of demand (read+write) MSHR miss ticks (Tick)
board.cache_hierarchy.l2_cache.overallMshrMissLatency::cache_hierarchy.l1_dcaches.prefetcher   1072255223                       # number of overall MSHR miss ticks (Tick)
board.cache_hierarchy.l2_cache.overallMshrMissLatency::cache_hierarchy.l2_cache.prefetcher 477201959823                       # number of overall MSHR miss ticks (Tick)
board.cache_hierarchy.l2_cache.overallMshrMissLatency::processor.cores.core.inst     13189797                       # number of overall MSHR miss ticks (Tick)
board.cache_hierarchy.l2_cache.overallMshrMissLatency::processor.cores.core.data 374890499235                       # number of overall MSHR miss ticks (Tick)
board.cache_hierarchy.l2_cache.overallMshrMissLatency::total 853177904078                       # number of overall MSHR miss ticks (Tick)
board.cache_hierarchy.l2_cache.demandMshrMissRate::cache_hierarchy.l1_dcaches.prefetcher     0.233699                       # mshr miss ratio for demand accesses (Ratio)
board.cache_hierarchy.l2_cache.demandMshrMissRate::processor.cores.core.inst     0.304854                       # mshr miss ratio for demand accesses (Ratio)
board.cache_hierarchy.l2_cache.demandMshrMissRate::processor.cores.core.data     0.844565                       # mshr miss ratio for demand accesses (Ratio)
board.cache_hierarchy.l2_cache.demandMshrMissRate::total     0.837472                       # mshr miss ratio for demand accesses (Ratio)
board.cache_hierarchy.l2_cache.overallMshrMissRate::cache_hierarchy.l1_dcaches.prefetcher     0.233699                       # mshr miss ratio for overall accesses (Ratio)
board.cache_hierarchy.l2_cache.overallMshrMissRate::cache_hierarchy.l2_cache.prefetcher          inf                       # mshr miss ratio for overall accesses (Ratio)
board.cache_hierarchy.l2_cache.overallMshrMissRate::processor.cores.core.inst     0.304854                       # mshr miss ratio for overall accesses (Ratio)
board.cache_hierarchy.l2_cache.overallMshrMissRate::processor.cores.core.data     0.844565                       # mshr miss ratio for overall accesses (Ratio)
board.cache_hierarchy.l2_cache.overallMshrMissRate::total     1.973126                       # mshr miss ratio for overall accesses (Ratio)
board.cache_hierarchy.l2_cache.demandAvgMshrMissLatency::cache_hierarchy.l1_dcaches.prefetcher 76068.049305                       # average overall mshr miss latency ((Tick/Count))
board.cache_hierarchy.l2_cache.demandAvgMshrMissLatency::processor.cores.core.inst 84011.445860                       # average overall mshr miss latency ((Tick/Count))
board.cache_hierarchy.l2_cache.demandAvgMshrMissLatency::processor.cores.core.data 85812.847082                       # average overall mshr miss latency ((Tick/Count))
board.cache_hierarchy.l2_cache.demandAvgMshrMissLatency::total 85781.442337                       # average overall mshr miss latency ((Tick/Count))
board.cache_hierarchy.l2_cache.overallAvgMshrMissLatency::cache_hierarchy.l1_dcaches.prefetcher 76068.049305                       # average overall mshr miss latency ((Tick/Count))
board.cache_hierarchy.l2_cache.overallAvgMshrMissLatency::cache_hierarchy.l2_cache.prefetcher 80289.599935                       # average overall mshr miss latency ((Tick/Count))
board.cache_hierarchy.l2_cache.overallAvgMshrMissLatency::processor.cores.core.inst 84011.445860                       # average overall mshr miss latency ((Tick/Count))
board.cache_hierarchy.l2_cache.overallAvgMshrMissLatency::processor.cores.core.data 85812.847082                       # average overall mshr miss latency ((Tick/Count))
board.cache_hierarchy.l2_cache.overallAvgMshrMissLatency::total 82620.551618                       # average overall mshr miss latency ((Tick/Count))
board.cache_hierarchy.l2_cache.replacements     10318852                       # number of replacements (Count)
board.cache_hierarchy.l2_cache.CleanEvict.mshrMisses::writebacks          600                       # number of CleanEvict MSHR misses (Count)
board.cache_hierarchy.l2_cache.CleanEvict.mshrMisses::total          600                       # number of CleanEvict MSHR misses (Count)
board.cache_hierarchy.l2_cache.CleanEvict.mshrMissRate::writebacks          inf                       # mshr miss rate for CleanEvict accesses (Ratio)
board.cache_hierarchy.l2_cache.CleanEvict.mshrMissRate::total          inf                       # mshr miss rate for CleanEvict accesses (Ratio)
board.cache_hierarchy.l2_cache.HardPFReq.mshrMisses::cache_hierarchy.l2_cache.prefetcher      5943509                       # number of HardPFReq MSHR misses (Count)
board.cache_hierarchy.l2_cache.HardPFReq.mshrMisses::total      5943509                       # number of HardPFReq MSHR misses (Count)
board.cache_hierarchy.l2_cache.HardPFReq.mshrMissLatency::cache_hierarchy.l2_cache.prefetcher 477201959823                       # number of HardPFReq MSHR miss ticks (Tick)
board.cache_hierarchy.l2_cache.HardPFReq.mshrMissLatency::total 477201959823                       # number of HardPFReq MSHR miss ticks (Tick)
board.cache_hierarchy.l2_cache.HardPFReq.mshrMissRate::cache_hierarchy.l2_cache.prefetcher          inf                       # mshr miss rate for HardPFReq accesses (Ratio)
board.cache_hierarchy.l2_cache.HardPFReq.mshrMissRate::total          inf                       # mshr miss rate for HardPFReq accesses (Ratio)
board.cache_hierarchy.l2_cache.HardPFReq.avgMshrMissLatency::cache_hierarchy.l2_cache.prefetcher 80289.599935                       # average HardPFReq mshr miss latency ((Tick/Count))
board.cache_hierarchy.l2_cache.HardPFReq.avgMshrMissLatency::total 80289.599935                       # average HardPFReq mshr miss latency ((Tick/Count))
board.cache_hierarchy.l2_cache.ReadExReq.hits::processor.cores.core.data        12502                       # number of ReadExReq hits (Count)
board.cache_hierarchy.l2_cache.ReadExReq.hits::total        12502                       # number of ReadExReq hits (Count)
board.cache_hierarchy.l2_cache.ReadExReq.misses::processor.cores.core.data       973628                       # number of ReadExReq misses (Count)
board.cache_hierarchy.l2_cache.ReadExReq.misses::total       973628                       # number of ReadExReq misses (Count)
board.cache_hierarchy.l2_cache.ReadExReq.missLatency::processor.cores.core.data  95173351713                       # number of ReadExReq miss ticks (Tick)
board.cache_hierarchy.l2_cache.ReadExReq.missLatency::total  95173351713                       # number of ReadExReq miss ticks (Tick)
board.cache_hierarchy.l2_cache.ReadExReq.accesses::processor.cores.core.data       986130                       # number of ReadExReq accesses(hits+misses) (Count)
board.cache_hierarchy.l2_cache.ReadExReq.accesses::total       986130                       # number of ReadExReq accesses(hits+misses) (Count)
board.cache_hierarchy.l2_cache.ReadExReq.missRate::processor.cores.core.data     0.987322                       # miss rate for ReadExReq accesses (Ratio)
board.cache_hierarchy.l2_cache.ReadExReq.missRate::total     0.987322                       # miss rate for ReadExReq accesses (Ratio)
board.cache_hierarchy.l2_cache.ReadExReq.avgMissLatency::processor.cores.core.data 97751.247615                       # average ReadExReq miss latency ((Tick/Count))
board.cache_hierarchy.l2_cache.ReadExReq.avgMissLatency::total 97751.247615                       # average ReadExReq miss latency ((Tick/Count))
board.cache_hierarchy.l2_cache.ReadExReq.mshrHits::processor.cores.core.data       447977                       # number of ReadExReq MSHR hits (Count)
board.cache_hierarchy.l2_cache.ReadExReq.mshrHits::total       447977                       # number of ReadExReq MSHR hits (Count)
board.cache_hierarchy.l2_cache.ReadExReq.mshrMisses::processor.cores.core.data       525651                       # number of ReadExReq MSHR misses (Count)
board.cache_hierarchy.l2_cache.ReadExReq.mshrMisses::total       525651                       # number of ReadExReq MSHR misses (Count)
board.cache_hierarchy.l2_cache.ReadExReq.mshrMissLatency::processor.cores.core.data  59827253193                       # number of ReadExReq MSHR miss ticks (Tick)
board.cache_hierarchy.l2_cache.ReadExReq.mshrMissLatency::total  59827253193                       # number of ReadExReq MSHR miss ticks (Tick)
board.cache_hierarchy.l2_cache.ReadExReq.mshrMissRate::processor.cores.core.data     0.533044                       # mshr miss rate for ReadExReq accesses (Ratio)
board.cache_hierarchy.l2_cache.ReadExReq.mshrMissRate::total     0.533044                       # mshr miss rate for ReadExReq accesses (Ratio)
board.cache_hierarchy.l2_cache.ReadExReq.avgMshrMissLatency::processor.cores.core.data 113815.541477                       # average ReadExReq mshr miss latency ((Tick/Count))
board.cache_hierarchy.l2_cache.ReadExReq.avgMshrMissLatency::total 113815.541477                       # average ReadExReq mshr miss latency ((Tick/Count))
board.cache_hierarchy.l2_cache.ReadSharedReq.hits::cache_hierarchy.l1_dcaches.prefetcher        29680                       # number of ReadSharedReq hits (Count)
board.cache_hierarchy.l2_cache.ReadSharedReq.hits::processor.cores.core.inst          306                       # number of ReadSharedReq hits (Count)
board.cache_hierarchy.l2_cache.ReadSharedReq.hits::processor.cores.core.data       343379                       # number of ReadSharedReq hits (Count)
board.cache_hierarchy.l2_cache.ReadSharedReq.hits::total       373365                       # number of ReadSharedReq hits (Count)
board.cache_hierarchy.l2_cache.ReadSharedReq.misses::cache_hierarchy.l1_dcaches.prefetcher        30637                       # number of ReadSharedReq misses (Count)
board.cache_hierarchy.l2_cache.ReadSharedReq.misses::processor.cores.core.inst          209                       # number of ReadSharedReq misses (Count)
board.cache_hierarchy.l2_cache.ReadSharedReq.misses::processor.cores.core.data      3843212                       # number of ReadSharedReq misses (Count)
board.cache_hierarchy.l2_cache.ReadSharedReq.misses::total      3874058                       # number of ReadSharedReq misses (Count)
board.cache_hierarchy.l2_cache.ReadSharedReq.missLatency::cache_hierarchy.l1_dcaches.prefetcher   2598646009                       # number of ReadSharedReq miss ticks (Tick)
board.cache_hierarchy.l2_cache.ReadSharedReq.missLatency::processor.cores.core.inst     16620696                       # number of ReadSharedReq miss ticks (Tick)
board.cache_hierarchy.l2_cache.ReadSharedReq.missLatency::processor.cores.core.data 340666801524                       # number of ReadSharedReq miss ticks (Tick)
board.cache_hierarchy.l2_cache.ReadSharedReq.missLatency::total 343282068229                       # number of ReadSharedReq miss ticks (Tick)
board.cache_hierarchy.l2_cache.ReadSharedReq.accesses::cache_hierarchy.l1_dcaches.prefetcher        60317                       # number of ReadSharedReq accesses(hits+misses) (Count)
board.cache_hierarchy.l2_cache.ReadSharedReq.accesses::processor.cores.core.inst          515                       # number of ReadSharedReq accesses(hits+misses) (Count)
board.cache_hierarchy.l2_cache.ReadSharedReq.accesses::processor.cores.core.data      4186591                       # number of ReadSharedReq accesses(hits+misses) (Count)
board.cache_hierarchy.l2_cache.ReadSharedReq.accesses::total      4247423                       # number of ReadSharedReq accesses(hits+misses) (Count)
board.cache_hierarchy.l2_cache.ReadSharedReq.missRate::cache_hierarchy.l1_dcaches.prefetcher     0.507933                       # miss rate for ReadSharedReq accesses (Ratio)
board.cache_hierarchy.l2_cache.ReadSharedReq.missRate::processor.cores.core.inst     0.405825                       # miss rate for ReadSharedReq accesses (Ratio)
board.cache_hierarchy.l2_cache.ReadSharedReq.missRate::processor.cores.core.data     0.917981                       # miss rate for ReadSharedReq accesses (Ratio)
board.cache_hierarchy.l2_cache.ReadSharedReq.missRate::total     0.912096                       # miss rate for ReadSharedReq accesses (Ratio)
board.cache_hierarchy.l2_cache.ReadSharedReq.avgMissLatency::cache_hierarchy.l1_dcaches.prefetcher 84820.511440                       # average ReadSharedReq miss latency ((Tick/Count))
board.cache_hierarchy.l2_cache.ReadSharedReq.avgMissLatency::processor.cores.core.inst 79524.861244                       # average ReadSharedReq miss latency ((Tick/Count))
board.cache_hierarchy.l2_cache.ReadSharedReq.avgMissLatency::processor.cores.core.data 88641.168253                       # average ReadSharedReq miss latency ((Tick/Count))
board.cache_hierarchy.l2_cache.ReadSharedReq.avgMissLatency::total 88610.461751                       # average ReadSharedReq miss latency ((Tick/Count))
board.cache_hierarchy.l2_cache.ReadSharedReq.mshrHits::cache_hierarchy.l1_dcaches.prefetcher        16541                       # number of ReadSharedReq MSHR hits (Count)
board.cache_hierarchy.l2_cache.ReadSharedReq.mshrHits::processor.cores.core.inst           52                       # number of ReadSharedReq MSHR hits (Count)
board.cache_hierarchy.l2_cache.ReadSharedReq.mshrHits::processor.cores.core.data          164                       # number of ReadSharedReq MSHR hits (Count)
board.cache_hierarchy.l2_cache.ReadSharedReq.mshrHits::total        16757                       # number of ReadSharedReq MSHR hits (Count)
board.cache_hierarchy.l2_cache.ReadSharedReq.mshrMisses::cache_hierarchy.l1_dcaches.prefetcher        14096                       # number of ReadSharedReq MSHR misses (Count)
board.cache_hierarchy.l2_cache.ReadSharedReq.mshrMisses::processor.cores.core.inst          157                       # number of ReadSharedReq MSHR misses (Count)
board.cache_hierarchy.l2_cache.ReadSharedReq.mshrMisses::processor.cores.core.data      3843048                       # number of ReadSharedReq MSHR misses (Count)
board.cache_hierarchy.l2_cache.ReadSharedReq.mshrMisses::total      3857301                       # number of ReadSharedReq MSHR misses (Count)
board.cache_hierarchy.l2_cache.ReadSharedReq.mshrMissLatency::cache_hierarchy.l1_dcaches.prefetcher   1072255223                       # number of ReadSharedReq MSHR miss ticks (Tick)
board.cache_hierarchy.l2_cache.ReadSharedReq.mshrMissLatency::processor.cores.core.inst     13189797                       # number of ReadSharedReq MSHR miss ticks (Tick)
board.cache_hierarchy.l2_cache.ReadSharedReq.mshrMissLatency::processor.cores.core.data 315063246042                       # number of ReadSharedReq MSHR miss ticks (Tick)
board.cache_hierarchy.l2_cache.ReadSharedReq.mshrMissLatency::total 316148691062                       # number of ReadSharedReq MSHR miss ticks (Tick)
board.cache_hierarchy.l2_cache.ReadSharedReq.mshrMissRate::cache_hierarchy.l1_dcaches.prefetcher     0.233699                       # mshr miss rate for ReadSharedReq accesses (Ratio)
board.cache_hierarchy.l2_cache.ReadSharedReq.mshrMissRate::processor.cores.core.inst     0.304854                       # mshr miss rate for ReadSharedReq accesses (Ratio)
board.cache_hierarchy.l2_cache.ReadSharedReq.mshrMissRate::processor.cores.core.data     0.917942                       # mshr miss rate for ReadSharedReq accesses (Ratio)
board.cache_hierarchy.l2_cache.ReadSharedReq.mshrMissRate::total     0.908151                       # mshr miss rate for ReadSharedReq accesses (Ratio)
board.cache_hierarchy.l2_cache.ReadSharedReq.avgMshrMissLatency::cache_hierarchy.l1_dcaches.prefetcher 76068.049305                       # average ReadSharedReq mshr miss latency ((Tick/Count))
board.cache_hierarchy.l2_cache.ReadSharedReq.avgMshrMissLatency::processor.cores.core.inst 84011.445860                       # average ReadSharedReq mshr miss latency ((Tick/Count))
board.cache_hierarchy.l2_cache.ReadSharedReq.avgMshrMissLatency::processor.cores.core.data 81982.646598                       # average ReadSharedReq mshr miss latency ((Tick/Count))
board.cache_hierarchy.l2_cache.ReadSharedReq.avgMshrMissLatency::total 81961.115055                       # average ReadSharedReq mshr miss latency ((Tick/Count))
board.cache_hierarchy.l2_cache.WritebackDirty.hits::writebacks      1531378                       # number of WritebackDirty hits (Count)
board.cache_hierarchy.l2_cache.WritebackDirty.hits::total      1531378                       # number of WritebackDirty hits (Count)
board.cache_hierarchy.l2_cache.WritebackDirty.accesses::writebacks      1531378                       # number of WritebackDirty accesses(hits+misses) (Count)
board.cache_hierarchy.l2_cache.WritebackDirty.accesses::total      1531378                       # number of WritebackDirty accesses(hits+misses) (Count)
board.cache_hierarchy.l2_cache.power_state.pwrStateResidencyTicks::UNDEFINED 264858836706                       # Cumulative time (in ticks) in various power states (Tick)
board.cache_hierarchy.l2_cache.prefetcher.demandMshrMisses      4382952                       # demands not covered by prefetchs (Count)
board.cache_hierarchy.l2_cache.prefetcher.pfIssued      6742665                       # number of hwpf issued (Count)
board.cache_hierarchy.l2_cache.prefetcher.pfUnused      5311840                       # number of HardPF blocks evicted w/o reference (Count)
board.cache_hierarchy.l2_cache.prefetcher.pfUseful       162946                       # number of useful prefetch (Count)
board.cache_hierarchy.l2_cache.prefetcher.pfUsefulButMiss            0                       # number of hit on prefetch but cache block is not in an usable state (Count)
board.cache_hierarchy.l2_cache.prefetcher.accuracy     0.024166                       # accuracy of the prefetcher (Count)
board.cache_hierarchy.l2_cache.prefetcher.coverage     0.035845                       # coverage brought by this prefetcher (Count)
board.cache_hierarchy.l2_cache.prefetcher.pfHitInCache       331244                       # number of prefetches hitting in cache (Count)
board.cache_hierarchy.l2_cache.prefetcher.pfHitInMSHR       467911                       # number of prefetches hitting in a MSHR (Count)
board.cache_hierarchy.l2_cache.prefetcher.pfHitInWB            1                       # number of prefetches hit in the Write Buffer (Count)
board.cache_hierarchy.l2_cache.prefetcher.pfLate       799156                       # number of late prefetches (hitting in cache, MSHR or WB) (Count)
board.cache_hierarchy.l2_cache.prefetcher.pfIdentified      9786422                       # number of prefetch candidates identified (Count)
board.cache_hierarchy.l2_cache.prefetcher.pfBufferHit          555                       # number of redundant prefetches already in prefetch queue (Count)
board.cache_hierarchy.l2_cache.prefetcher.pfInCache            0                       # number of redundant prefetches already in cache/mshr dropped (Count)
board.cache_hierarchy.l2_cache.prefetcher.pfRemovedDemand      1533867                       # number of prefetches dropped due to a demand for the same address (Count)
board.cache_hierarchy.l2_cache.prefetcher.pfRemovedFull            0                       # number of prefetches dropped due to prefetch queue size (Count)
[...]
board.processor.cores.core.fetch.nisnDist::3      2075566      0.26%     96.70% # Number of instructions fetched each cycle (Total) (Count)
board.processor.cores.core.fetch.nisnDist::4      4236171      0.53%     97.23% # Number of instructions fetched each cycle (Total) (Count)
board.processor.cores.core.fetch.nisnDist::5      1897726      0.24%     97.47% # Number of instructions fetched each cycle (Total) (Count)
board.processor.cores.core.fetch.nisnDist::6      4713944      0.59%     98.06% # Number of instructions fetched each cycle (Total) (Count)
board.processor.cores.core.fetch.nisnDist::7      2232388      0.28%     98.34% # Number of instructions fetched each cycle (Total) (Count)
board.processor.cores.core.fetch.nisnDist::8     13164989      1.66%    100.00% # Number of instructions fetched each cycle (Total) (Count)
board.processor.cores.core.fetch.nisnDist::overflows            0      0.00%    100.00% # Number of instructions fetched each cycle (Total) (Count)
board.processor.cores.core.fetch.nisnDist::min_value            0                       # Number of instructions fetched each cycle (Total) (Count)
board.processor.cores.core.fetch.nisnDist::max_value            8                       # Number of instructions fetched each cycle (Total) (Count)
board.processor.cores.core.fetch.nisnDist::total    795341524                       # Number of instructions fetched each cycle (Total) (Count)
board.processor.cores.core.fetchStats0.numInsts    188980676                       # Number of instructions fetched (thread level) (Count)
board.processor.cores.core.fetchStats0.numOps            0                       # Number of ops (including micro ops) fetched (thread level) (Count)
board.processor.cores.core.fetchStats0.fetchRate     0.237600                       # Number of inst fetches per cycle ((Count/Cycle))
board.processor.cores.core.fetchStats0.numBranches     21289560                       # Number of branches fetched (Count)
board.processor.cores.core.fetchStats0.branchRate     0.026767                       # Number of branch fetches per cycle (Ratio)
board.processor.cores.core.fetchStats0.icacheStallCycles     22418605                       # ICache total stall cycles (Cycle)
board.processor.cores.core.fetchStats0.numFetchSuspends            0                       # Number of times Execute suspended instruction fetching (Count)
board.processor.cores.core.iew.idleCycles            0                       # Number of cycles IEW is idle (Cycle)
board.processor.cores.core.iew.squashCycles      1616198                       # Number of cycles IEW is squashing (Cycle)
board.processor.cores.core.iew.blockCycles     59678668                       # Number of cycles IEW is blocking (Cycle)
board.processor.cores.core.iew.unblockCycles    541267533                       # Number of cycles IEW is unblocking (Cycle)
board.processor.cores.core.iew.dispatchedInsts    161121653                       # Number of instructions dispatched to IQ (Count)
board.processor.cores.core.iew.dispSquashedInsts          216                       # Number of squashed instructions skipped by dispatch (Count)
board.processor.cores.core.iew.dispLoadInsts     54740050                       # Number of dispatched load instructions (Count)
board.processor.cores.core.iew.dispStoreInsts     27533788                       # Number of dispatched store instructions (Count)
board.processor.cores.core.iew.dispNonSpecInsts      1607028                       # Number of dispatched non-speculative instructions (Count)
board.processor.cores.core.iew.iqFullEvents        96464                       # Number of times the IQ has become full, causing a stall (Count)
board.processor.cores.core.iew.lsqFullEvents    540974987                       # Number of times the LSQ has become full, causing a stall (Count)
board.processor.cores.core.iew.memOrderViolationEvents      1573381                       # Number of memory order violations (Count)
board.processor.cores.core.iew.predictedTakenIncorrect          994                       # Number of branches that were predicted taken incorrectly (Count)
board.processor.cores.core.iew.predictedNotTakenIncorrect        34360                       # Number of branches that were predicted not taken incorrectly (Count)
board.processor.cores.core.iew.branchMispredicts        35354                       # Number of branch mispredicts detected at execute (Count)
board.processor.cores.core.iew.instsToCommit    148401235                       # Cumulative count of insts sent to commit (Count)
board.processor.cores.core.iew.writebackCount    147867678                       # Cumulative count of insts written-back (Count)
board.processor.cores.core.iew.producerInst     97674998                       # Number of instructions producing a value (Count)
board.processor.cores.core.iew.consumerInst    120414811                       # Number of instructions consuming a value (Count)
board.processor.cores.core.iew.wbRate        0.185910                       # Insts written-back per cycle ((Count/Cycle))
board.processor.cores.core.iew.wbFanout      0.811154                       # Average fanout of values written-back ((Count/Count))
board.processor.cores.core.lsq0.forwLoads     11076101                       # Number of loads that had data forwarded from stores (Count)
board.processor.cores.core.lsq0.squashedLoads     12775205                       # Number of loads squashed (Count)
board.processor.cores.core.lsq0.ignoredResponses           48                       # Number of memory responses ignored because the instruction is squashed (Count)
board.processor.cores.core.lsq0.memOrderViolation      1573381                       # Number of memory ordering violations (Count)
board.processor.cores.core.lsq0.squashedStores      8652621                       # Number of stores squashed (Count)
board.processor.cores.core.lsq0.rescheduledLoads            1                       # Number of loads that were rescheduled (Count)
board.processor.cores.core.lsq0.blockedByCache       892788                       # Number of times an access to memory failed due to the cache being blocked (Count)
board.processor.cores.core.lsq0.loadToUse::samples     41964845                       # Distribution of cycle latency between the first time a load is issued and its completion (Unspecified)
board.processor.cores.core.lsq0.loadToUse::mean    46.013167                       # Distribution of cycle latency between the first time a load is issued and its completion (Unspecified)
board.processor.cores.core.lsq0.loadToUse::stdev   110.051544                       # Distribution of cycle latency between the first time a load is issued and its completion (Unspecified)
board.processor.cores.core.lsq0.loadToUse::0-9     34848635     83.04%     83.04% # Distribution of cycle latency between the first time a load is issued and its completion (Unspecified)
board.processor.cores.core.lsq0.loadToUse::10-19        13289      0.03%     83.07% # Distribution of cycle latency between the first time a load is issued and its completion (Unspecified)
board.processor.cores.core.lsq0.loadToUse::20-29       363149      0.87%     83.94% # Distribution of cycle latency between the first time a load is issued and its completion (Unspecified)
board.processor.cores.core.lsq0.loadToUse::30-39         5302      0.01%     83.95% # Distribution of cycle latency between the first time a load is issued and its completion (Unspecified)
board.processor.cores.core.lsq0.loadToUse::40-49        13101      0.03%     83.98% # Distribution of cycle latency between the first time a load is issued and its completion (Unspecified)
board.processor.cores.core.lsq0.loadToUse::50-59        11366      0.03%     84.01% # Distribution of cycle latency between the first time a load is issued and its completion (Unspecified)
board.processor.cores.core.lsq0.loadToUse::60-69        15484      0.04%     84.05% # Distribution of cycle latency between the first time a load is issued and its completion (Unspecified)
board.processor.cores.core.lsq0.loadToUse::70-79        34806      0.08%     84.13% # Distribution of cycle latency between the first time a load is issued and its completion (Unspecified)
board.processor.cores.core.lsq0.loadToUse::80-89        65529      0.16%     84.29% # Distribution of cycle latency between the first time a load is issued and its completion (Unspecified)
board.processor.cores.core.lsq0.loadToUse::90-99        67966      0.16%     84.45% # Distribution of cycle latency between the first time a load is issued and its completion (Unspecified)
board.processor.cores.core.lsq0.loadToUse::100-109        63396      0.15%     84.60% # Distribution of cycle latency between the first time a load is issued and its completion (Unspecified)
board.processor.cores.core.lsq0.loadToUse::110-119        94465      0.23%     84.82% # Distribution of cycle latency between the first time a load is issued and its completion (Unspecified)
board.processor.cores.core.lsq0.loadToUse::120-129        97376      0.23%     85.06% # Distribution of cycle latency between the first time a load is issued and its completion (Unspecified)
board.processor.cores.core.lsq0.loadToUse::130-139        72731      0.17%     85.23% # Distribution of cycle latency between the first time a load is issued and its completion (Unspecified)
board.processor.cores.core.lsq0.loadToUse::140-149        68556      0.16%     85.39% # Distribution of cycle latency between the first time a load is issued and its completion (Unspecified)
board.processor.cores.core.lsq0.loadToUse::150-159        84552      0.20%     85.59% # Distribution of cycle latency between the first time a load is issued and its completion (Unspecified)
board.processor.cores.core.lsq0.loadToUse::160-169        86947      0.21%     85.80% # Distribution of cycle latency between the first time a load is issued and its completion (Unspecified)
board.processor.cores.core.lsq0.loadToUse::170-179        96502      0.23%     86.03% # Distribution of cycle latency between the first time a load is issued and its completion (Unspecified)
board.processor.cores.core.lsq0.loadToUse::180-189       135238      0.32%     86.35% # Distribution of cycle latency between the first time a load is issued and its completion (Unspecified)
board.processor.cores.core.lsq0.loadToUse::190-199       173589      0.41%     86.77% # Distribution of cycle latency between the first time a load is issued and its completion (Unspecified)
board.processor.cores.core.lsq0.loadToUse::200-209       141125      0.34%     87.10% # Distribution of cycle latency between the first time a load is issued and its completion (Unspecified)
board.processor.cores.core.lsq0.loadToUse::210-219       138970      0.33%     87.44% # Distribution of cycle latency between the first time a load is issued and its completion (Unspecified)
board.processor.cores.core.lsq0.loadToUse::220-229       563467      1.34%     88.78% # Distribution of cycle latency between the first time a load is issued and its completion (Unspecified)
board.processor.cores.core.lsq0.loadToUse::230-239       301321      0.72%     89.50% # Distribution of cycle latency between the first time a load is issued and its completion (Unspecified)
board.processor.cores.core.lsq0.loadToUse::240-249        49493      0.12%     89.61% # Distribution of cycle latency between the first time a load is issued and its completion (Unspecified)
board.processor.cores.core.lsq0.loadToUse::250-259       214537      0.51%     90.13% # Distribution of cycle latency between the first time a load is issued and its completion (Unspecified)
board.processor.cores.core.lsq0.loadToUse::260-269      2134148      5.09%     95.21% # Distribution of cycle latency between the first time a load is issued and its completion (Unspecified)
board.processor.cores.core.lsq0.loadToUse::270-279        61694      0.15%     95.36% # Distribution of cycle latency between the first time a load is issued and its completion (Unspecified)
board.processor.cores.core.lsq0.loadToUse::280-289      1208145      2.88%     98.24% # Distribution of cycle latency between the first time a load is issued and its completion (Unspecified)
board.processor.cores.core.lsq0.loadToUse::290-299        19705      0.05%     98.28% # Distribution of cycle latency between the first time a load is issued and its completion (Unspecified)
board.processor.cores.core.lsq0.loadToUse::overflows       720261      1.72%    100.00% # Distribution of cycle latency between the first time a load is issued and its completion (Unspecified)
board.processor.cores.core.lsq0.loadToUse::min_value            2                       # Distribution of cycle latency between the first time a load is issued and its completion (Unspecified)
board.processor.cores.core.lsq0.loadToUse::max_value         1677                       # Distribution of cycle latency between the first time a load is issued and its completion (Unspecified)
board.processor.cores.core.lsq0.loadToUse::total     41964845                       # Distribution of cycle latency between the first time a load is issued and its completion (Unspecified)
board.processor.cores.core.mmu.dtb.readHits            0                       # read hits (Count)
board.processor.cores.core.mmu.dtb.readMisses            0                       # read misses (Count)
board.processor.cores.core.mmu.dtb.readAccesses            0                       # read accesses (Count)
board.processor.cores.core.mmu.dtb.writeHits            0                       # write hits (Count)
board.processor.cores.core.mmu.dtb.writeMisses            0                       # write misses (Count)
board.processor.cores.core.mmu.dtb.writeAccesses            0                       # write accesses (Count)
board.processor.cores.core.mmu.dtb.hits             0                       # Total TLB (read and write) hits (Count)
board.processor.cores.core.mmu.dtb.misses            0                       # Total TLB (read and write) misses (Count)
board.processor.cores.core.mmu.dtb.accesses            0                       # Total TLB (read and write) accesses (Count)
board.processor.cores.core.mmu.dtb.walker.num_4kb_walks            0                       # Completed page walks with 4KB pages (Count)
board.processor.cores.core.mmu.dtb.walker.num_2mb_walks            0                       # Completed page walks with 2MB pages (Count)
board.processor.cores.core.mmu.dtb.walker.power_state.pwrStateResidencyTicks::UNDEFINED 264858836706                       # Cumulative time (in ticks) in various power states (Tick)
board.processor.cores.core.mmu.itb.readHits            0                       # read hits (Count)
board.processor.cores.core.mmu.itb.readMisses            0                       # read misses (Count)
board.processor.cores.core.mmu.itb.readAccesses            0                       # read accesses (Count)
board.processor.cores.core.mmu.itb.writeHits            0                       # write hits (Count)
board.processor.cores.core.mmu.itb.writeMisses            0                       # write misses (Count)
board.processor.cores.core.mmu.itb.writeAccesses            0                       # write accesses (Count)
board.processor.cores.core.mmu.itb.hits             0                       # Total TLB (read and write) hits (Count)
board.processor.cores.core.mmu.itb.misses            0                       # Total TLB (read and write) misses (Count)
board.processor.cores.core.mmu.itb.accesses            0                       # Total TLB (read and write) accesses (Count)
board.processor.cores.core.mmu.itb.walker.num_4kb_walks            0                       # Completed page walks with 4KB pages (Count)
board.processor.cores.core.mmu.itb.walker.num_2mb_walks            0                       # Completed page walks with 2MB pages (Count)
board.processor.cores.core.mmu.itb.walker.power_state.pwrStateResidencyTicks::UNDEFINED 264858836706                       # Cumulative time (in ticks) in various power states (Tick)
board.processor.cores.core.power_state.pwrStateResidencyTicks::ON 264858836706                       # Cumulative time (in ticks) in various power states (Tick)
board.processor.cores.core.rename.squashCycles      1616198                       # Number of cycles rename is squashing (Cycle)
board.processor.cores.core.rename.idleCycles     14742597                       # Number of cycles rename is idle (Cycle)
board.processor.cores.core.rename.blockCycles    608042132                       # Number of cycles rename is blocking (Cycle)
board.processor.cores.core.rename.serializeStallCycles     85645744                       # count of cycles rename stalled for serializing inst (Cycle)
board.processor.cores.core.rename.runCycles     21656915                       # Number of cycles rename is running (Cycle)
board.processor.cores.core.rename.unblockCycles     63637938                       # Number of cycles rename is unblocking (Cycle)
board.processor.cores.core.rename.renamedInsts    162107958                       # Number of instructions processed by rename (Count)
board.processor.cores.core.rename.ROBFullEvents         3397                       # Number of times rename has blocked due to ROB full (Count)
board.processor.cores.core.rename.IQFullEvents     31422822                       # Number of times rename has blocked due to IQ full (Count)
board.processor.cores.core.rename.LQFullEvents     51584383                       # Number of times rename has blocked due to LQ full (Count)
board.processor.cores.core.rename.SQFullEvents      3718375                       # Number of times rename has blocked due to SQ full (Count)
board.processor.cores.core.rename.renamedOperands    122228764                       # Number of destination operands rename has renamed (Count)
board.processor.cores.core.rename.lookups    195587537                       # Number of register rename lookups that rename has made (Count)
board.processor.cores.core.rename.intLookups    194003549                       # Number of integer rename lookups (Count)
board.processor.cores.core.rename.fpLookups           15                       # Number of floating rename lookups (Count)
board.processor.cores.core.rename.committedMaps     91841793                       # Number of HB maps that are committed (Count)
board.processor.cores.core.rename.undoneMaps     30386971                       # Number of HB maps that are undone due to squashing (Count)
board.processor.cores.core.rename.serializing      1049777                       # count of serializing insts renamed (Count)
board.processor.cores.core.rename.tempSerializing      1049777                       # count of temporary serializing insts renamed (Count)
board.processor.cores.core.rename.skidInsts     48439861                       # count of insts added to the skid buffer (Count)
board.processor.cores.core.rob.reads        935083124                       # The number of ROB reads (Count)
board.processor.cores.core.rob.writes       328852158                       # The number of ROB writes (Count)
board.processor.cores.core.thread_0.numInsts    120190277                       # Number of Instructions committed (Count)
board.processor.cores.core.thread_0.numOps    121238904                       # Number of Ops committed (Count)
board.processor.cores.core.thread_0.numMemRefs            0                       # Number of Memory References (Count)
board.processor.cores.core.workload.numSyscalls           20                       # Number of system calls (Count)
board.workload.inst.arm                             0                       # number of arm instructions executed (Count)
board.workload.inst.quiesce                         0                       # number of quiesce instructions executed (Count)

---------- End Simulation Statistics   ----------
