
---------- Begin Simulation Statistics ----------
simSeconds                                   0.000253                       # Number of seconds simulated (Second)
simTicks                                    253024056                       # Number of ticks simulated (Tick)
finalTick                                   253024056                       # Number of ticks from beginning of simulation (restored from checkpoints and never reset) (Tick)
simFreq                                  1000000000000                       # The number of ticks per simulated second ((Tick/Second))
hostSeconds                                      3.00                       # Real time elapsed on the host (Second)
hostTickRate                                 84321649                       # The number of ticks simulated per host second (ticks/s) ((Tick/Second))
hostMemory                                    8567192                       # Number of bytes of host memory used (Byte)
simInsts                                      2269781                       # Number of instructions simulated (Count)
simOps                                        2269828                       # Number of ops (including micro ops) simulated (Count)
hostInstRate                                   756404                       # Simulator instruction rate (inst/s) ((Count/Second))
hostOpRate                                     756419                       # Simulator op (including micro ops) rate (op/s) ((Count/Second))
board.cache_hierarchy.l1_dcaches.demandHits::processor.cores.core.data       728183                       # number of demand (read+write) hits (Count)
board.cache_hierarchy.l1_dcaches.demandHits::total       728183                       # number of demand (read+write) hits (Count)
board.cache_hierarchy.l1_dcaches.overallHits::processor.cores.core.data       728183                       # number of overall hits (Count)
board.cache_hierarchy.l1_dcaches.overallHits::total       728183                       # number of overall hits (Count)
board.cache_hierarchy.l1_dcaches.demandMisses::processor.cores.core.data        11995                       # number of demand (read+write) misses (Count)
board.cache_hierarchy.l1_dcaches.demandMisses::total        11995                       # number of demand (read+write) misses (Count)
board.cache_hierarchy.l1_dcaches.overallMisses::processor.cores.core.data        11995                       # number of overall misses (Count)
board.cache_hierarchy.l1_dcaches.overallMisses::total        11995                       # number of overall misses (Count)
board.cache_hierarchy.l1_dcaches.demandMissLatency::processor.cores.core.data    220964358                       # number of demand (read+write) miss ticks (Tick)
board.cache_hierarchy.l1_dcaches.demandMissLatency::total    220964358                       # number of demand (read+write) miss ticks (Tick)
board.cache_hierarchy.l1_dcaches.overallMissLatency::processor.cores.core.data    220964358                       # number of overall miss ticks (Tick)
board.cache_hierarchy.l1_dcaches.overallMissLatency::total    220964358                       # number of overall miss ticks (Tick)
board.cache_hierarchy.l1_dcaches.demandAccesses::processor.cores.core.data       740178                       # number of demand (read+write) accesses (Count)
board.cache_hierarchy.l1_dcaches.demandAccesses::total       740178                       # number of demand (read+write) accesses (Count)
board.cache_hierarchy.l1_dcaches.overallAccesses::processor.cores.core.data       740178                       # number of overall (read+write) accesses (Count)
board.cache_hierarchy.l1_dcaches.overallAccesses::total       740178                       # number of overall (read+write) accesses (Count)
board.cache_hierarchy.l1_dcaches.demandMissRate::processor.cores.core.data     0.016206                       # miss rate for demand accesses (Ratio)
board.cache_hierarchy.l1_dcaches.demandMissRate::total     0.016206                       # miss rate for demand accesses (Ratio)
board.cache_hierarchy.l1_dcaches.overallMissRate::processor.cores.core.data     0.016206                       # miss rate for overall accesses (Ratio)
board.cache_hierarchy.l1_dcaches.overallMissRate::total     0.016206                       # miss rate for overall accesses (Ratio)
board.cache_hierarchy.l1_dcaches.demandAvgMissLatency::processor.cores.core.data 18421.372072                       # average overall miss latency in ticks ((Tick/Count))
board.cache_hierarchy.l1_dcaches.demandAvgMissLatency::total 18421.372072                       # average overall miss latency in ticks ((Tick/Count))
board.cache_hierarchy.l1_dcaches.overallAvgMissLatency::processor.cores.core.data 18421.372072                       # average overall miss latency ((Tick/Count))
board.cache_hierarchy.l1_dcaches.overallAvgMissLatency::total 18421.372072                       # average overall miss latency ((Tick/Count))
board.cache_hierarchy.l1_dcaches.blockedCycles::no_mshrs        10088                       # number of cycles access was blocked (Cycle)
board.cache_hierarchy.l1_dcaches.blockedCycles::no_targets            0                       # number of cycles access was blocked (Cycle)
board.cache_hierarchy.l1_dcaches.blockedCauses::no_mshrs          185                       # number of times access was blocked (Count)
board.cache_hierarchy.l1_dcaches.blockedCauses::no_targets            0                       # number of times access was blocked (Count)
board.cache_hierarchy.l1_dcaches.avgBlocked::no_mshrs    54.529730                       # average number of cycles each access was blocked ((Cycle/Count))
board.cache_hierarchy.l1_dcaches.avgBlocked::no_targets          nan                       # average number of cycles each access was blocked ((Cycle/Count))
board.cache_hierarchy.l1_dcaches.writebacks::writebacks        32572                       # number of writebacks (Count)
board.cache_hierarchy.l1_dcaches.writebacks::total        32572                       # number of writebacks (Count)
board.cache_hierarchy.l1_dcaches.demandMshrHits::processor.cores.core.data        10530                       # number of demand (read+write) MSHR hits (Count)
board.cache_hierarchy.l1_dcaches.demandMshrHits::total        10530                       # number of demand (read+write) MSHR hits (Count)
board.cache_hierarchy.l1_dcaches.overallMshrHits::processor.cores.core.data        10530                       # number of overall MSHR hits (Count)
board.cache_hierarchy.l1_dcaches.overallMshrHits::total        10530                       # number of overall MSHR hits (Count)
board.cache_hierarchy.l1_dcaches.demandMshrMisses::processor.cores.core.data         1465                       # number of demand (read+write) MSHR misses (Count)
board.cache_hierarchy.l1_dcaches.demandMshrMisses::total         1465                       # number of demand (read+write) MSHR misses (Count)
board.cache_hierarchy.l1_dcaches.overallMshrMisses::cache_hierarchy.l1_dcaches.prefetcher        32699                       # number of overall MSHR misses (Count)
board.cache_hierarchy.l1_dcaches.overallMshrMisses::processor.cores.core.data         1465                       # number of overall MSHR misses (Count)
board.cache_hierarchy.l1_dcaches.overallMshrMisses::total        34164                       # number of overall MSHR misses (Count)
board.cache_hierarchy.l1_dcaches.demandMshrMissLatency::processor.cores.core.data     39774517                       # number of demand (read+write) MSHR miss ticks (Tick)
board.cache_hierarchy.l1_dcaches.demandMshrMissLatency::total     39774517                       # number of demand (read+write) MSHR miss ticks (Tick)
board.cache_hierarchy.l1_dcaches.overallMshrMissLatency::cache_hierarchy.l1_dcaches.prefetcher    307215832                       # number of overall MSHR miss ticks (Tick)
board.cache_hierarchy.l1_dcaches.overallMshrMissLatency::processor.cores.core.data     39774517                       # number of overall MSHR miss ticks (Tick)
board.cache_hierarchy.l1_dcaches.overallMshrMissLatency::total    346990349                       # number of overall MSHR miss ticks (Tick)
board.cache_hierarchy.l1_dcaches.demandMshrMissRate::processor.cores.core.data     0.001979                       # mshr miss ratio for demand accesses (Ratio)
board.cache_hierarchy.l1_dcaches.demandMshrMissRate::total     0.001979                       # mshr miss ratio for demand accesses (Ratio)
board.cache_hierarchy.l1_dcaches.overallMshrMissRate::cache_hierarchy.l1_dcaches.prefetcher          inf                       # mshr miss ratio for overall accesses (Ratio)
board.cache_hierarchy.l1_dcaches.overallMshrMissRate::processor.cores.core.data     0.001979                       # mshr miss ratio for overall accesses (Ratio)
board.cache_hierarchy.l1_dcaches.overallMshrMissRate::total     0.046156                       # mshr miss ratio for overall accesses (Ratio)
board.cache_hierarchy.l1_dcaches.demandAvgMshrMissLatency::processor.cores.core.data 27149.840956                       # average overall mshr miss latency ((Tick/Count))
board.cache_hierarchy.l1_dcaches.demandAvgMshrMissLatency::total 27149.840956                       # average overall mshr miss latency ((Tick/Count))
board.cache_hierarchy.l1_dcaches.overallAvgMshrMissLatency::cache_hierarchy.l1_dcaches.prefetcher  9395.266889                       # average overall mshr miss latency ((Tick/Count))
board.cache_hierarchy.l1_dcaches.overallAvgMshrMissLatency::processor.cores.core.data 27149.840956                       # average overall mshr miss latency ((Tick/Count))
board.cache_hierarchy.l1_dcaches.overallAvgMshrMissLatency::total 10156.607804                       # average overall mshr miss latency ((Tick/Count))
board.cache_hierarchy.l1_dcaches.replacements        33655                       # number of replacements (Count)
board.cache_hierarchy.l1_dcaches.HardPFReq.mshrMisses::cache_hierarchy.l1_dcaches.prefetcher        32699                       # number of HardPFReq MSHR misses (Count)
board.cache_hierarchy.l1_dcaches.HardPFReq.mshrMisses::total        32699                       # number of HardPFReq MSHR misses (Count)
board.cache_hierarchy.l1_dcaches.HardPFReq.mshrMissLatency::cache_hierarchy.l1_dcaches.prefetcher    307215832                       # number of HardPFReq MSHR miss ticks (Tick)
board.cache_hierarchy.l1_dcaches.HardPFReq.mshrMissLatency::total    307215832                       # number of HardPFReq MSHR miss ticks (Tick)
board.cache_hierarchy.l1_dcaches.HardPFReq.mshrMissRate::cache_hierarchy.l1_dcaches.prefetcher          inf                       # mshr miss rate for HardPFReq accesses (Ratio)
board.cache_hierarchy.l1_dcaches.HardPFReq.mshrMissRate::total          inf                       # mshr miss rate for HardPFReq accesses (Ratio)
board.cache_hierarchy.l1_dcaches.HardPFReq.avgMshrMissLatency::cache_hierarchy.l1_dcaches.prefetcher  9395.266889                       # average HardPFReq mshr miss latency ((Tick/Count))
board.cache_hierarchy.l1_dcaches.HardPFReq.avgMshrMissLatency::total  9395.266889                       # average HardPFReq mshr miss latency ((Tick/Count))
board.cache_hierarchy.l1_dcaches.LoadLockedReq.hits::processor.cores.core.data           17                       # number of LoadLockedReq hits (Count)
board.cache_hierarchy.l1_dcaches.LoadLockedReq.hits::total           17                       # number of LoadLockedReq hits (Count)
board.cache_hierarchy.l1_dcaches.LoadLockedReq.misses::processor.cores.core.data            3                       # number of LoadLockedReq misses (Count)
board.cache_hierarchy.l1_dcaches.LoadLockedReq.misses::total            3                       # number of LoadLockedReq misses (Count)
board.cache_hierarchy.l1_dcaches.LoadLockedReq.missLatency::processor.cores.core.data        92574                       # number of LoadLockedReq miss ticks (Tick)
board.cache_hierarchy.l1_dcaches.LoadLockedReq.missLatency::total        92574                       # number of LoadLockedReq miss ticks (Tick)
board.cache_hierarchy.l1_dcaches.LoadLockedReq.accesses::processor.cores.core.data           20                       # number of LoadLockedReq accesses(hits+misses) (Count)
board.cache_hierarchy.l1_dcaches.LoadLockedReq.accesses::total           20                       # number of LoadLockedReq accesses(hits+misses) (Count)
board.cache_hierarchy.l1_dcaches.LoadLockedReq.missRate::processor.cores.core.data     0.150000                       # miss rate for LoadLockedReq accesses (Ratio)
board.cache_hierarchy.l1_dcaches.LoadLockedReq.missRate::total     0.150000                       # miss rate for LoadLockedReq accesses (Ratio)
board.cache_hierarchy.l1_dcaches.LoadLockedReq.avgMissLatency::processor.cores.core.data        30858                       # average LoadLockedReq miss latency ((Tick/Count))
board.cache_hierarchy.l1_dcaches.LoadLockedReq.avgMissLatency::total        30858                       # average LoadLockedReq miss latency ((Tick/Count))
board.cache_hierarchy.l1_dcaches.LoadLockedReq.mshrHits::processor.cores.core.data            1                       # number of LoadLockedReq MSHR hits (Count)
board.cache_hierarchy.l1_dcaches.LoadLockedReq.mshrHits::total            1                       # number of LoadLockedReq MSHR hits (Count)
board.cache_hierarchy.l1_dcaches.LoadLockedReq.mshrMisses::processor.cores.core.data            2                       # number of LoadLockedReq MSHR misses (Count)
board.cache_hierarchy.l1_dcaches.LoadLockedReq.mshrMisses::total            2                       # number of LoadLockedReq MSHR misses (Count)
board.cache_hierarchy.l1_dcaches.LoadLockedReq.mshrMissLatency::processor.cores.core.data        81918                       # number of LoadLockedReq MSHR miss ticks (Tick)
board.cache_hierarchy.l1_dcaches.LoadLockedReq.mshrMissLatency::total        81918                       # number of LoadLockedReq MSHR miss ticks (Tick)
board.cache_hierarchy.l1_dcaches.LoadLockedReq.mshrMissRate::processor.cores.core.data     0.100000                       # mshr miss rate for LoadLockedReq accesses (Ratio)
board.cache_hierarchy.l1_dcaches.LoadLockedReq.mshrMissRate::total     0.100000                       # mshr miss rate for LoadLockedReq accesses (Ratio)
board.cache_hierarchy.l1_dcaches.LoadLockedReq.avgMshrMissLatency::processor.cores.core.data        40959                       # average LoadLockedReq mshr miss latency ((Tick/Count))
board.cache_hierarchy.l1_dcaches.LoadLockedReq.avgMshrMissLatency::total        40959                       # average LoadLockedReq mshr miss latency ((Tick/Count))
board.cache_hierarchy.l1_dcaches.ReadReq.hits::processor.cores.core.data       543768                       # number of ReadReq hits (Count)
board.cache_hierarchy.l1_dcaches.ReadReq.hits::total       543768                       # number of ReadReq hits (Count)
board.cache_hierarchy.l1_dcaches.ReadReq.misses::processor.cores.core.data         1943                       # number of ReadReq misses (Count)
board.cache_hierarchy.l1_dcaches.ReadReq.misses::total         1943                       # number of ReadReq misses (Count)
board.cache_hierarchy.l1_dcaches.ReadReq.missLatency::processor.cores.core.data     37743219                       # number of ReadReq miss ticks (Tick)
board.cache_hierarchy.l1_dcaches.ReadReq.missLatency::total     37743219                       # number of ReadReq miss ticks (Tick)
board.cache_hierarchy.l1_dcaches.ReadReq.accesses::processor.cores.core.data       545711                       # number of ReadReq accesses(hits+misses) (Count)
board.cache_hierarchy.l1_dcaches.ReadReq.accesses::total       545711                       # number of ReadReq accesses(hits+misses) (Count)
board.cache_hierarchy.l1_dcaches.ReadReq.missRate::processor.cores.core.data     0.003560                       # miss rate for ReadReq accesses (Ratio)
board.cache_hierarchy.l1_dcaches.ReadReq.missRate::total     0.003560                       # miss rate for ReadReq accesses (Ratio)
board.cache_hierarchy.l1_dcaches.ReadReq.avgMissLatency::processor.cores.core.data 19425.228513                       # average ReadReq miss latency ((Tick/Count))
board.cache_hierarchy.l1_dcaches.ReadReq.avgMissLatency::total 19425.228513                       # average ReadReq miss latency ((Tick/Count))
board.cache_hierarchy.l1_dcaches.ReadReq.mshrHits::processor.cores.core.data         1171                       # number of ReadReq MSHR hits (Count)
board.cache_hierarchy.l1_dcaches.ReadReq.mshrHits::total         1171                       # number of ReadReq MSHR hits (Count)
board.cache_hierarchy.l1_dcaches.ReadReq.mshrMisses::processor.cores.core.data          772                       # number of ReadReq MSHR misses (Count)
board.cache_hierarchy.l1_dcaches.ReadReq.mshrMisses::total          772                       # number of ReadReq MSHR misses (Count)
board.cache_hierarchy.l1_dcaches.ReadReq.mshrMissLatency::processor.cores.core.data     15967350                       # number of ReadReq MSHR miss ticks (Tick)
board.cache_hierarchy.l1_dcaches.ReadReq.mshrMissLatency::total     15967350                       # number of ReadReq MSHR miss ticks (Tick)
board.cache_hierarchy.l1_dcaches.ReadReq.mshrMissRate::processor.cores.core.data     0.001415                       # mshr miss rate for ReadReq accesses (Ratio)
board.cache_hierarchy.l1_dcaches.ReadReq.mshrMissRate::total     0.001415                       # mshr miss rate for ReadReq accesses (Ratio)
board.cache_hierarchy.l1_dcaches.ReadReq.avgMshrMissLatency::processor.cores.core.data 20683.095855                       # average ReadReq mshr miss latency ((Tick/Count))
board.cache_hierarchy.l1_dcaches.ReadReq.avgMshrMissLatency::total 20683.095855                       # average ReadReq mshr miss latency ((Tick/Count))
board.cache_hierarchy.l1_dcaches.StoreCondReq.hits::processor.cores.core.data           11                       # number of StoreCondReq hits (Count)
board.cache_hierarchy.l1_dcaches.StoreCondReq.hits::total           11                       # number of StoreCondReq hits (Count)
board.cache_hierarchy.l1_dcaches.StoreCondReq.accesses::processor.cores.core.data           11                       # number of StoreCondReq accesses(hits+misses) (Count)
board.cache_hierarchy.l1_dcaches.StoreCondReq.accesses::total           11                       # number of StoreCondReq accesses(hits+misses) (Count)
board.cache_hierarchy.l1_dcaches.SwapReq.hits::processor.cores.core.data           12                       # number of SwapReq hits (Count)
board.cache_hierarchy.l1_dcaches.SwapReq.hits::total           12                       # number of SwapReq hits (Count)
board.cache_hierarchy.l1_dcaches.SwapReq.misses::processor.cores.core.data            1                       # number of SwapReq misses (Count)
board.cache_hierarchy.l1_dcaches.SwapReq.misses::total            1                       # number of SwapReq misses (Count)
board.cache_hierarchy.l1_dcaches.SwapReq.missLatency::processor.cores.core.data         8658                       # number of SwapReq miss ticks (Tick)
board.cache_hierarchy.l1_dcaches.SwapReq.missLatency::total         8658                       # number of SwapReq miss ticks (Tick)
board.cache_hierarchy.l1_dcaches.SwapReq.accesses::processor.cores.core.data           13                       # number of SwapReq accesses(hits+misses) (Count)
board.cache_hierarchy.l1_dcaches.SwapReq.accesses::total           13                       # number of SwapReq accesses(hits+misses) (Count)
board.cache_hierarchy.l1_dcaches.SwapReq.missRate::processor.cores.core.data     0.076923                       # miss rate for SwapReq accesses (Ratio)
board.cache_hierarchy.l1_dcaches.SwapReq.missRate::total     0.076923                       # miss rate for SwapReq accesses (Ratio)
board.cache_hierarchy.l1_dcaches.SwapReq.avgMissLatency::processor.cores.core.data         8658                       # average SwapReq miss latency ((Tick/Count))
board.cache_hierarchy.l1_dcaches.SwapReq.avgMissLatency::total         8658                       # average SwapReq miss latency ((Tick/Count))
board.cache_hierarchy.l1_dcaches.SwapReq.mshrMisses::processor.cores.core.data            1                       # number of SwapReq MSHR misses (Count)
board.cache_hierarchy.l1_dcaches.SwapReq.mshrMisses::total            1                       # number of SwapReq MSHR misses (Count)
board.cache_hierarchy.l1_dcaches.SwapReq.mshrMissLatency::processor.cores.core.data         7992                       # number of SwapReq MSHR miss ticks (Tick)
board.cache_hierarchy.l1_dcaches.SwapReq.mshrMissLatency::total         7992                       # number of SwapReq MSHR miss ticks (Tick)
board.cache_hierarchy.l1_dcaches.SwapReq.mshrMissRate::processor.cores.core.data     0.076923                       # mshr miss rate for SwapReq accesses (Ratio)
board.cache_hierarchy.l1_dcaches.SwapReq.mshrMissRate::total     0.076923                       # mshr miss rate for SwapReq accesses (Ratio)
board.cache_hierarchy.l1_dcaches.SwapReq.avgMshrMissLatency::processor.cores.core.data         7992                       # average SwapReq mshr miss latency ((Tick/Count))
board.cache_hierarchy.l1_dcaches.SwapReq.avgMshrMissLatency::total         7992                       # average SwapReq mshr miss latency ((Tick/Count))
board.cache_hierarchy.l1_dcaches.WriteReq.hits::processor.cores.core.data       184415                       # number of WriteReq hits (Count)
board.cache_hierarchy.l1_dcaches.WriteReq.hits::total       184415                       # number of WriteReq hits (Count)
board.cache_hierarchy.l1_dcaches.WriteReq.misses::processor.cores.core.data        10052                       # number of WriteReq misses (Count)
board.cache_hierarchy.l1_dcaches.WriteReq.misses::total        10052                       # number of WriteReq misses (Count)
board.cache_hierarchy.l1_dcaches.WriteReq.missLatency::processor.cores.core.data    183221139                       # number of WriteReq miss ticks (Tick)
board.cache_hierarchy.l1_dcaches.WriteReq.missLatency::total    183221139                       # number of WriteReq miss ticks (Tick)
board.cache_hierarchy.l1_dcaches.WriteReq.accesses::processor.cores.core.data       194467                       # number of WriteReq accesses(hits+misses) (Count)
board.cache_hierarchy.l1_dcaches.WriteReq.accesses::total       194467                       # number of WriteReq accesses(hits+misses) (Count)
board.cache_hierarchy.l1_dcaches.WriteReq.missRate::processor.cores.core.data     0.051690                       # miss rate for WriteReq accesses (Ratio)
board.cache_hierarchy.l1_dcaches.WriteReq.missRate::total     0.051690                       # miss rate for WriteReq accesses (Ratio)
board.cache_hierarchy.l1_dcaches.WriteReq.avgMissLatency::processor.cores.core.data 18227.331775                       # average WriteReq miss latency ((Tick/Count))
board.cache_hierarchy.l1_dcaches.WriteReq.avgMissLatency::total 18227.331775                       # average WriteReq miss latency ((Tick/Count))
board.cache_hierarchy.l1_dcaches.WriteReq.mshrHits::processor.cores.core.data         9359                       # number of WriteReq MSHR hits (Count)
board.cache_hierarchy.l1_dcaches.WriteReq.mshrHits::total         9359                       # number of WriteReq MSHR hits (Count)
board.cache_hierarchy.l1_dcaches.WriteReq.mshrMisses::processor.cores.core.data          693                       # number of WriteReq MSHR misses (Count)
board.cache_hierarchy.l1_dcaches.WriteReq.mshrMisses::total          693                       # number of WriteReq MSHR misses (Count)
board.cache_hierarchy.l1_dcaches.WriteReq.mshrMissLatency::processor.cores.core.data     23807167                       # number of WriteReq MSHR miss ticks (Tick)
board.cache_hierarchy.l1_dcaches.WriteReq.mshrMissLatency::total     23807167                       # number of WriteReq MSHR miss ticks (Tick)
board.cache_hierarchy.l1_dcaches.WriteReq.mshrMissRate::processor.cores.core.data     0.003564                       # mshr miss rate for WriteReq accesses (Ratio)
board.cache_hierarchy.l1_dcaches.WriteReq.mshrMissRate::total     0.003564                       # mshr miss rate for WriteReq accesses (Ratio)
board.cache_hierarchy.l1_dcaches.WriteReq.avgMshrMissLatency::processor.cores.core.data 34353.776335                       # average WriteReq mshr miss latency ((Tick/Count))
board.cache_hierarchy.l1_dcaches.WriteReq.avgMshrMissLatency::total 34353.776335                       # average WriteReq mshr miss latency ((Tick/Count))
board.cache_hierarchy.l1_dcaches.power_state.pwrStateResidencyTicks::UNDEFINED    253024056                       # Cumulative time (in ticks) in various power states (Tick)
board.cache_hierarchy.l1_dcaches.prefetcher.demandMshrMisses         1465                       # demands not covered by prefetchs (Count)
board.cache_hierarchy.l1_dcaches.prefetcher.pfIssued       115672                       # number of hwpf issued (Count)
board.cache_hierarchy.l1_dcaches.prefetcher.pfUnused          205                       # number of HardPF blocks evicted w/o reference (Count)
board.cache_hierarchy.l1_dcaches.prefetcher.pfUseful        31054                       # number of useful prefetch (Count)
board.cache_hierarchy.l1_dcaches.prefetcher.pfUsefulButMiss            0                       # number of hit on prefetch but cache block is not in an usable state (Count)
board.cache_hierarchy.l1_dcaches.prefetcher.accuracy     0.268466                       # accuracy of the prefetcher (Count)
board.cache_hierarchy.l1_dcaches.prefetcher.coverage     0.954949                       # coverage brought by this prefetcher (Count)
board.cache_hierarchy.l1_dcaches.prefetcher.pfHitInCache        82698                       # number of prefetches hitting in cache (Count)
board.cache_hierarchy.l1_dcaches.prefetcher.pfHitInMSHR          275                       # number of prefetches hitting in a MSHR (Count)
board.cache_hierarchy.l1_dcaches.prefetcher.pfHitInWB            0                       # number of prefetches hit in the Write Buffer (Count)
board.cache_hierarchy.l1_dcaches.prefetcher.pfLate        82973                       # number of late prefetches (hitting in cache, MSHR or WB) (Count)
board.cache_hierarchy.l1_dcaches.prefetcher.pfIdentified       128460                       # number of prefetch candidates identified (Count)
board.cache_hierarchy.l1_dcaches.prefetcher.pfBufferHit        10755                       # number of redundant prefetches already in prefetch queue (Count)
board.cache_hierarchy.l1_dcaches.prefetcher.pfInCache            0                       # number of redundant prefetches already in cache/mshr dropped (Count)
board.cache_hierarchy.l1_dcaches.prefetcher.pfRemovedDemand         1815                       # number of prefetches dropped due to a demand for the same address (Count)
board.cache_hierarchy.l1_dcaches.prefetcher.pfRemovedFull            0                       # number of prefetches dropped due to prefetch queue size (Count)
board.cache_hierarchy.l1_dcaches.prefetcher.pfSpanPage         5208                       # number of prefetches that crossed the page (Count)
board.cache_hierarchy.l1_dcaches.prefetcher.pfUsefulSpanPage         4889                       # number of prefetches that is useful and crossed the page (Count)
board.cache_hierarchy.l1_dcaches.prefetcher.power_state.pwrStateResidencyTicks::UNDEFINED    253024056                       # Cumulative time (in ticks) in various power states (Tick)
board.cache_hierarchy.l1_dcaches.tags.tagsInUse   491.390873                       # Average ticks per tags in use ((Tick/Count))
board.cache_hierarchy.l1_dcaches.tags.totalRefs       762390                       # Total number of references to valid blocks. (Count)
board.cache_hierarchy.l1_dcaches.tags.sampledRefs        34167                       # Sample count of references to valid blocks. (Count)
board.cache_hierarchy.l1_dcaches.tags.avgRefs    22.313636                       # Average number of references to valid blocks. ((Count/Count))
board.cache_hierarchy.l1_dcaches.tags.warmupTick       274392                       # The tick when the warmup percentage was hit. (Tick)
board.cache_hierarchy.l1_dcaches.tags.occupancies::cache_hierarchy.l1_dcaches.prefetcher   450.960080                       # Average occupied blocks per tick, per requestor ((Count/Tick))
board.cache_hierarchy.l1_dcaches.tags.occupancies::processor.cores.core.data    40.430793                       # Average occupied blocks per tick, per requestor ((Count/Tick))
board.cache_hierarchy.l1_dcaches.tags.avgOccs::cache_hierarchy.l1_dcaches.prefetcher     0.880781                       # Average percentage of cache occupancy ((Ratio/Tick))
board.cache_hierarchy.l1_dcaches.tags.avgOccs::processor.cores.core.data     0.078966                       # Average percentage of cache occupancy ((Ratio/Tick))
board.cache_hierarchy.l1_dcaches.tags.avgOccs::total     0.959748                       # Average percentage of cache occupancy ((Ratio/Tick))
board.cache_hierarchy.l1_dcaches.tags.occupanciesTaskId::1022          401                       # Occupied blocks per task id (Count)
board.cache_hierarchy.l1_dcaches.tags.occupanciesTaskId::1024          111                       # Occupied blocks per task id (Count)
board.cache_hierarchy.l1_dcaches.tags.ageTaskId_1022::0          387                       # Occupied blocks per task id, per block age (Count)
board.cache_hierarchy.l1_dcaches.tags.ageTaskId_1022::1           14                       # Occupied blocks per task id, per block age (Count)
board.cache_hierarchy.l1_dcaches.tags.ageTaskId_1024::0          110                       # Occupied blocks per task id, per block age (Count)
board.cache_hierarchy.l1_dcaches.tags.ageTaskId_1024::2            1                       # Occupied blocks per task id, per block age (Count)
board.cache_hierarchy.l1_dcaches.tags.ratioOccsTaskId::1022     0.783203                       # Ratio of occupied blocks and all blocks, per task id (Ratio)
board.cache_hierarchy.l1_dcaches.tags.ratioOccsTaskId::1024     0.216797                       # Ratio of occupied blocks and all blocks, per task id (Ratio)
board.cache_hierarchy.l1_dcaches.tags.tagAccesses      5955943                       # Number of tag accesses (Count)
board.cache_hierarchy.l1_dcaches.tags.dataAccesses      5955943                       # Number of data accesses (Count)
board.cache_hierarchy.l1_dcaches.tags.power_state.pwrStateResidencyTicks::UNDEFINED    253024056                       # Cumulative time (in ticks) in various power states (Tick)
board.cache_hierarchy.l1_icaches.demandHits::processor.cores.core.inst       213221                       # number of demand (read+write) hits (Count)
board.cache_hierarchy.l1_icaches.demandHits::total       213221                       # number of demand (read+write) hits (Count)
board.cache_hierarchy.l1_icaches.overallHits::processor.cores.core.inst       213221                       # number of overall hits (Count)
board.cache_hierarchy.l1_icaches.overallHits::total       213221                       # number of overall hits (Count)
board.cache_hierarchy.l1_icaches.demandMisses::processor.cores.core.inst          669                       # number of demand (read+write) misses (Count)
board.cache_hierarchy.l1_icaches.demandMisses::total          669                       # number of demand (read+write) misses (Count)
board.cache_hierarchy.l1_icaches.overallMisses::processor.cores.core.inst          669                       # number of overall misses (Count)
board.cache_hierarchy.l1_icaches.overallMisses::total          669                       # number of overall misses (Count)
board.cache_hierarchy.l1_icaches.demandMissLatency::processor.cores.core.inst     23575068                       # number of demand (read+write) miss ticks (Tick)
board.cache_hierarchy.l1_icaches.demandMissLatency::total     23575068                       # number of demand (read+write) miss ticks (Tick)
board.cache_hierarchy.l1_icaches.overallMissLatency::processor.cores.core.inst     23575068                       # number of overall miss ticks (Tick)
board.cache_hierarchy.l1_icaches.overallMissLatency::total     23575068                       # number of overall miss ticks (Tick)
board.cache_hierarchy.l1_icaches.demandAccesses::processor.cores.core.inst       213890                       # number of demand (read+write) accesses (Count)
board.cache_hierarchy.l1_icaches.demandAccesses::total       213890                       # number of demand (read+write) accesses (Count)
board.cache_hierarchy.l1_icaches.overallAccesses::processor.cores.core.inst       213890                       # number of overall (read+write) accesses (Count)
board.cache_hierarchy.l1_icaches.overallAccesses::total       213890                       # number of overall (read+write) accesses (Count)
board.cache_hierarchy.l1_icaches.demandMissRate::processor.cores.core.inst     0.003128                       # miss rate for demand accesses (Ratio)
board.cache_hierarchy.l1_icaches.demandMissRate::total     0.003128                       # miss rate for demand accesses (Ratio)
board.cache_hierarchy.l1_icaches.overallMissRate::processor.cores.core.inst     0.003128                       # miss rate for overall accesses (Ratio)
board.cache_hierarchy.l1_icaches.overallMissRate::total     0.003128                       # miss rate for overall accesses (Ratio)
board.cache_hierarchy.l1_icaches.demandAvgMissLatency::processor.cores.core.inst 35239.264574                       # average overall miss latency in ticks ((Tick/Count))
board.cache_hierarchy.l1_icaches.demandAvgMissLatency::total 35239.264574                       # average overall miss latency in ticks ((Tick/Count))
board.cache_hierarchy.l1_icaches.overallAvgMissLatency::processor.cores.core.inst 35239.264574                       # average overall miss latency ((Tick/Count))
board.cache_hierarchy.l1_icaches.overallAvgMissLatency::total 35239.264574                       # average overall miss latency ((Tick/Count))
board.cache_hierarchy.l1_icaches.blockedCycles::no_mshrs          137                       # number of cycles access was blocked (Cycle)
board.cache_hierarchy.l1_icaches.blockedCycles::no_targets            0                       # number of cycles access was blocked (Cycle)
board.cache_hierarchy.l1_icaches.blockedCauses::no_mshrs            4                       # number of times access was blocked (Count)
board.cache_hierarchy.l1_icaches.blockedCauses::no_targets            0                       # number of times access was blocked (Count)
board.cache_hierarchy.l1_icaches.avgBlocked::no_mshrs    34.250000                       # average number of cycles each access was blocked ((Cycle/Count))
board.cache_hierarchy.l1_icaches.avgBlocked::no_targets          nan                       # average number of cycles each access was blocked ((Cycle/Count))
board.cache_hierarchy.l1_icaches.demandMshrHits::processor.cores.core.inst          123                       # number of demand (read+write) MSHR hits (Count)
board.cache_hierarchy.l1_icaches.demandMshrHits::total          123                       # number of demand (read+write) MSHR hits (Count)
board.cache_hierarchy.l1_icaches.overallMshrHits::processor.cores.core.inst          123                       # number of overall MSHR hits (Count)
board.cache_hierarchy.l1_icaches.overallMshrHits::total          123                       # number of overall MSHR hits (Count)
board.cache_hierarchy.l1_icaches.demandMshrMisses::processor.cores.core.inst          546                       # number of demand (read+write) MSHR misses (Count)
board.cache_hierarchy.l1_icaches.demandMshrMisses::total          546                       # number of demand (read+write) MSHR misses (Count)
board.cache_hierarchy.l1_icaches.overallMshrMisses::processor.cores.core.inst          546                       # number of overall MSHR misses (Count)
board.cache_hierarchy.l1_icaches.overallMshrMisses::total          546                       # number of overall MSHR misses (Count)
board.cache_hierarchy.l1_icaches.demandMshrMissLatency::processor.cores.core.inst     19164150                       # number of demand (read+write) MSHR miss ticks (Tick)
board.cache_hierarchy.l1_icaches.demandMshrMissLatency::total     19164150                       # number of demand (read+write) MSHR miss ticks (Tick)
board.cache_hierarchy.l1_icaches.overallMshrMissLatency::processor.cores.core.inst     19164150                       # number of overall MSHR miss ticks (Tick)
board.cache_hierarchy.l1_icaches.overallMshrMissLatency::total     19164150                       # number of overall MSHR miss ticks (Tick)
board.cache_hierarchy.l1_icaches.demandMshrMissRate::processor.cores.core.inst     0.002553                       # mshr miss ratio for demand accesses (Ratio)
board.cache_hierarchy.l1_icaches.demandMshrMissRate::total     0.002553                       # mshr miss ratio for demand accesses (Ratio)
board.cache_hierarchy.l1_icaches.overallMshrMissRate::processor.cores.core.inst     0.002553                       # mshr miss ratio for overall accesses (Ratio)
board.cache_hierarchy.l1_icaches.overallMshrMissRate::total     0.002553                       # mshr miss ratio for overall accesses (Ratio)
board.cache_hierarchy.l1_icaches.demandAvgMshrMissLatency::processor.cores.core.inst 35099.175824                       # average overall mshr miss latency ((Tick/Count))
board.cache_hierarchy.l1_icaches.demandAvgMshrMissLatency::total 35099.175824                       # average overall mshr miss latency ((Tick/Count))
board.cache_hierarchy.l1_icaches.overallAvgMshrMissLatency::processor.cores.core.inst 35099.175824                       # average overall mshr miss latency ((Tick/Count))
board.cache_hierarchy.l1_icaches.overallAvgMshrMissLatency::total 35099.175824                       # average overall mshr miss latency ((Tick/Count))
board.cache_hierarchy.l1_icaches.replacements           67                       # number of replacements (Count)
board.cache_hierarchy.l1_icaches.ReadReq.hits::processor.cores.core.inst       213221                       # number of ReadReq hits (Count)
board.cache_hierarchy.l1_icaches.ReadReq.hits::total       213221                       # number of ReadReq hits (Count)
board.cache_hierarchy.l1_icaches.ReadReq.misses::processor.cores.core.inst          669                       # number of ReadReq misses (Count)
board.cache_hierarchy.l1_icaches.ReadReq.misses::total          669                       # number of ReadReq misses (Count)
board.cache_hierarchy.l1_icaches.ReadReq.missLatency::processor.cores.core.inst     23575068                       # number of ReadReq miss ticks (Tick)
board.cache_hierarchy.l1_icaches.ReadReq.missLatency::total     23575068                       # number of ReadReq miss ticks (Tick)
board.cache_hierarchy.l1_icaches.ReadReq.accesses::processor.cores.core.inst       213890                       # number of ReadReq accesses(hits+misses) (Count)
board.cache_hierarchy.l1_icaches.ReadReq.accesses::total       213890                       # number of ReadReq accesses(hits+misses) (Count)
board.cache_hierarchy.l1_icaches.ReadReq.missRate::processor.cores.core.inst     0.003128                       # miss rate for ReadReq accesses (Ratio)
board.cache_hierarchy.l1_icaches.ReadReq.missRate::total     0.003128                       # miss rate for ReadReq accesses (Ratio)
board.cache_hierarchy.l1_icaches.ReadReq.avgMissLatency::processor.cores.core.inst 35239.264574                       # average ReadReq miss latency ((Tick/Count))
board.cache_hierarchy.l1_icaches.ReadReq.avgMissLatency::total 35239.264574                       # average ReadReq miss latency ((Tick/Count))
board.cache_hierarchy.l1_icaches.ReadReq.mshrHits::processor.cores.core.inst          123                       # number of ReadReq MSHR hits (Count)
board.cache_hierarchy.l1_icaches.ReadReq.mshrHits::total          123                       # number of ReadReq MSHR hits (Count)
board.cache_hierarchy.l1_icaches.ReadReq.mshrMisses::processor.cores.core.inst          546                       # number of ReadReq MSHR misses (Count)
board.cache_hierarchy.l1_icaches.ReadReq.mshrMisses::total          546                       # number of ReadReq MSHR misses (Count)
board.cache_hierarchy.l1_icaches.ReadReq.mshrMissLatency::processor.cores.core.inst     19164150                       # number of ReadReq MSHR miss ticks (Tick)
board.cache_hierarchy.l1_icaches.ReadReq.mshrMissLatency::total     19164150                       # number of ReadReq MSHR miss ticks (Tick)
board.cache_hierarchy.l1_icaches.ReadReq.mshrMissRate::processor.cores.core.inst     0.002553                       # mshr miss rate for ReadReq accesses (Ratio)
board.cache_hierarchy.l1_icaches.ReadReq.mshrMissRate::total     0.002553                       # mshr miss rate for ReadReq accesses (Ratio)
board.cache_hierarchy.l1_icaches.ReadReq.avgMshrMissLatency::processor.cores.core.inst 35099.175824                       # average ReadReq mshr miss latency ((Tick/Count))
board.cache_hierarchy.l1_icaches.ReadReq.avgMshrMissLatency::total 35099.175824                       # average ReadReq mshr miss latency ((Tick/Count))
board.cache_hierarchy.l1_icaches.power_state.pwrStateResidencyTicks::UNDEFINED    253024056                       # Cumulative time (in ticks) in various power states (Tick)
board.cache_hierarchy.l1_icaches.tags.tagsInUse   325.897050                       # Average ticks per tags in use ((Tick/Count))
board.cache_hierarchy.l1_icaches.tags.totalRefs       213766                       # Total number of references to valid blocks. (Count)
board.cache_hierarchy.l1_icaches.tags.sampledRefs          545                       # Sample count of references to valid blocks. (Count)
board.cache_hierarchy.l1_icaches.tags.avgRefs   392.231193                       # Average number of references to valid blocks. ((Count/Count))
board.cache_hierarchy.l1_icaches.tags.warmupTick        86580                       # The tick when the warmup percentage was hit. (Tick)
board.cache_hierarchy.l1_icaches.tags.occupancies::processor.cores.core.inst   325.897050                       # Average occupied blocks per tick, per requestor ((Count/Tick))
board.cache_hierarchy.l1_icaches.tags.avgOccs::processor.cores.core.inst     0.636518                       # Average percentage of cache occupancy ((Ratio/Tick))
board.cache_hierarchy.l1_icaches.tags.avgOccs::total     0.636518                       # Average percentage of cache occupancy ((Ratio/Tick))
board.cache_hierarchy.l1_icaches.tags.occupanciesTaskId::1024          478                       # Occupied blocks per task id (Count)
board.cache_hierarchy.l1_icaches.tags.ageTaskId_1024::0          195                       # Occupied blocks per task id, per block age (Count)
board.cache_hierarchy.l1_icaches.tags.ageTaskId_1024::2          283                       # Occupied blocks per task id, per block age (Count)
board.cache_hierarchy.l1_icaches.tags.ratioOccsTaskId::1024     0.933594                       # Ratio of occupied blocks and all blocks, per task id (Ratio)
board.cache_hierarchy.l1_icaches.tags.tagAccesses      1711665                       # Number of tag accesses (Count)
board.cache_hierarchy.l1_icaches.tags.dataAccesses      1711665                       # Number of data accesses (Count)
board.cache_hierarchy.l1_icaches.tags.power_state.pwrStateResidencyTicks::UNDEFINED    253024056                       # Cumulative time (in ticks) in various power states (Tick)
board.cache_hierarchy.l2_bus.transDist::ReadResp        34018                       # Transaction distribution (Count)
board.cache_hierarchy.l2_bus.transDist::WritebackDirty        32671                       # Transaction distribution (Count)
board.cache_hierarchy.l2_bus.transDist::CleanEvict         2237                       # Transaction distribution (Count)
board.cache_hierarchy.l2_bus.transDist::HardPFReq         5345                       # Transaction distribution (Count)
board.cache_hierarchy.l2_bus.transDist::ReadExReq          694                       # Transaction distribution (Count)
board.cache_hierarchy.l2_bus.transDist::ReadExResp          694                       # Transaction distribution (Count)
board.cache_hierarchy.l2_bus.transDist::ReadSharedReq        34019                       # Transaction distribution (Count)
board.cache_hierarchy.l2_bus.pktCount_board.cache_hierarchy.l1_icaches.mem_side_port::board.cache_hierarchy.l2_cache.cpu_side_port         1158                       # Packet count per connected requestor and responder (Count)
board.cache_hierarchy.l2_bus.pktCount_board.cache_hierarchy.l1_dcaches.mem_side_port::board.cache_hierarchy.l2_cache.cpu_side_port       101989                       # Packet count per connected requestor and responder (Count)
board.cache_hierarchy.l2_bus.pktCount::total       103147                       # Packet count per connected requestor and responder (Count)
board.cache_hierarchy.l2_bus.pktSize_board.cache_hierarchy.l1_icaches.mem_side_port::board.cache_hierarchy.l2_cache.cpu_side_port        34880                       # Cumulative packet size per connected requestor and responder (Byte)
board.cache_hierarchy.l2_bus.pktSize_board.cache_hierarchy.l1_dcaches.mem_side_port::board.cache_hierarchy.l2_cache.cpu_side_port      4271296                       # Cumulative packet size per connected requestor and responder (Byte)
board.cache_hierarchy.l2_bus.pktSize::total      4306176                       # Cumulative packet size per connected requestor and responder (Byte)
board.cache_hierarchy.l2_bus.snoops              6531                       # Total snoops (Count)
board.cache_hierarchy.l2_bus.snoopTraffic         6336                       # Total snoop traffic (Byte)
board.cache_hierarchy.l2_bus.snoopFanout::samples        41244                       # Request fanout histogram (Count)
board.cache_hierarchy.l2_bus.snoopFanout::mean     0.007225                       # Request fanout histogram (Count)
board.cache_hierarchy.l2_bus.snoopFanout::stdev     0.084695                       # Request fanout histogram (Count)
board.cache_hierarchy.l2_bus.snoopFanout::underflows            0      0.00%      0.00% # Request fanout histogram (Count)
board.cache_hierarchy.l2_bus.snoopFanout::0        40946     99.28%     99.28% # Request fanout histogram (Count)
board.cache_hierarchy.l2_bus.snoopFanout::1          298      0.72%    100.00% # Request fanout histogram (Count)
board.cache_hierarchy.l2_bus.snoopFanout::2            0      0.00%    100.00% # Request fanout histogram (Count)
board.cache_hierarchy.l2_bus.snoopFanout::overflows            0      0.00%    100.00% # Request fanout histogram (Count)
board.cache_hierarchy.l2_bus.snoopFanout::min_value            0                       # Request fanout histogram (Count)
board.cache_hierarchy.l2_bus.snoopFanout::max_value            1                       # Request fanout histogram (Count)
board.cache_hierarchy.l2_bus.snoopFanout::total        41244                       # Request fanout histogram (Count)
board.cache_hierarchy.l2_bus.power_state.pwrStateResidencyTicks::UNDEFINED    253024056                       # Cumulative time (in ticks) in various power states (Tick)
board.cache_hierarchy.l2_bus.reqLayer0.occupancy     49840379                       # Layer occupancy (ticks) (Tick)
board.cache_hierarchy.l2_bus.reqLayer0.utilization          0.2                       # Layer utilization (Ratio)
board.cache_hierarchy.l2_bus.respLayer0.occupancy       544455                       # Layer occupancy (ticks) (Tick)
board.cache_hierarchy.l2_bus.respLayer0.utilization          0.0                       # Layer utilization (Ratio)
board.cache_hierarchy.l2_bus.respLayer1.occupancy     34133165                       # Layer occupancy (ticks) (Tick)
board.cache_hierarchy.l2_bus.respLayer1.utilization          0.1                       # Layer utilization (Ratio)
board.cache_hierarchy.l2_bus.snoop_filter.totRequests        68435                       # Total number of requests made to the snoop filter. (Count)
board.cache_hierarchy.l2_bus.snoop_filter.hitSingleRequests        33722                       # Number of requests hitting in the snoop filter with a single holder of the requested data. (Count)
board.cache_hierarchy.l2_bus.snoop_filter.hitMultiRequests            0                       # Number of requests hitting in the snoop filter with multiple (>1) holders of the requested data. (Count)
board.cache_hierarchy.l2_bus.snoop_filter.totSnoops          298                       # Total number of snoops made to the snoop filter. (Count)
board.cache_hierarchy.l2_bus.snoop_filter.hitSingleSnoops          298                       # Number of snoops hitting in the snoop filter with a single holder of the requested data. (Count)
board.cache_hierarchy.l2_bus.snoop_filter.hitMultiSnoops            0                       # Number of snoops hitting in the snoop filter with multiple (>1) holders of the requested data. (Count)
board.cache_hierarchy.l2_cache.demandHits::cache_hierarchy.l1_dcaches.prefetcher        29712                       # number of demand (read+write) hits (Count)
board.cache_hierarchy.l2_cache.demandHits::processor.cores.core.inst          320                       # number of demand (read+write) hits (Count)
board.cache_hierarchy.l2_cache.demandHits::processor.cores.core.data          802                       # number of demand (read+write) hits (Count)
board.cache_hierarchy.l2_cache.demandHits::total        30834                       # number of demand (read+write) hits (Count)
board.cache_hierarchy.l2_cache.overallHits::cache_hierarchy.l1_dcaches.prefetcher        29712                       # number of overall hits (Count)
board.cache_hierarchy.l2_cache.overallHits::processor.cores.core.inst          320                       # number of overall hits (Count)
board.cache_hierarchy.l2_cache.overallHits::processor.cores.core.data          802                       # number of overall hits (Count)
board.cache_hierarchy.l2_cache.overallHits::total        30834                       # number of overall hits (Count)
board.cache_hierarchy.l2_cache.demandMisses::cache_hierarchy.l1_dcaches.prefetcher         2987                       # number of demand (read+write) misses (Count)
board.cache_hierarchy.l2_cache.demandMisses::processor.cores.core.inst          226                       # number of demand (read+write) misses (Count)
board.cache_hierarchy.l2_cache.demandMisses::processor.cores.core.data          666                       # number of demand (read+write) misses (Count)
board.cache_hierarchy.l2_cache.demandMisses::total         3879                       # number of demand (read+write) misses (Count)
board.cache_hierarchy.l2_cache.overallMisses::cache_hierarchy.l1_dcaches.prefetcher         2987                       # number of overall misses (Count)
board.cache_hierarchy.l2_cache.overallMisses::processor.cores.core.inst          226                       # number of overall misses (Count)
board.cache_hierarchy.l2_cache.overallMisses::processor.cores.core.data          666                       # number of overall misses (Count)
board.cache_hierarchy.l2_cache.overallMisses::total         3879                       # number of overall misses (Count)
board.cache_hierarchy.l2_cache.demandMissLatency::cache_hierarchy.l1_dcaches.prefetcher     66358627                       # number of demand (read+write) miss ticks (Tick)
board.cache_hierarchy.l2_cache.demandMissLatency::processor.cores.core.inst     16360956                       # number of demand (read+write) miss ticks (Tick)
board.cache_hierarchy.l2_cache.demandMissLatency::processor.cores.core.data     32615352                       # number of demand (read+write) miss ticks (Tick)
board.cache_hierarchy.l2_cache.demandMissLatency::total    115334935                       # number of demand (read+write) miss ticks (Tick)
board.cache_hierarchy.l2_cache.overallMissLatency::cache_hierarchy.l1_dcaches.prefetcher     66358627                       # number of overall miss ticks (Tick)
board.cache_hierarchy.l2_cache.overallMissLatency::processor.cores.core.inst     16360956                       # number of overall miss ticks (Tick)
board.cache_hierarchy.l2_cache.overallMissLatency::processor.cores.core.data     32615352                       # number of overall miss ticks (Tick)
board.cache_hierarchy.l2_cache.overallMissLatency::total    115334935                       # number of overall miss ticks (Tick)
board.cache_hierarchy.l2_cache.demandAccesses::cache_hierarchy.l1_dcaches.prefetcher        32699                       # number of demand (read+write) accesses (Count)
board.cache_hierarchy.l2_cache.demandAccesses::processor.cores.core.inst          546                       # number of demand (read+write) accesses (Count)
board.cache_hierarchy.l2_cache.demandAccesses::processor.cores.core.data         1468                       # number of demand (read+write) accesses (Count)
board.cache_hierarchy.l2_cache.demandAccesses::total        34713                       # number of demand (read+write) accesses (Count)
board.cache_hierarchy.l2_cache.overallAccesses::cache_hierarchy.l1_dcaches.prefetcher        32699                       # number of overall (read+write) accesses (Count)
board.cache_hierarchy.l2_cache.overallAccesses::processor.cores.core.inst          546                       # number of overall (read+write) accesses (Count)
board.cache_hierarchy.l2_cache.overallAccesses::processor.cores.core.data         1468                       # number of overall (read+write) accesses (Count)
board.cache_hierarchy.l2_cache.overallAccesses::total        34713                       # number of overall (read+write) accesses (Count)
board.cache_hierarchy.l2_cache.demandMissRate::cache_hierarchy.l1_dcaches.prefetcher     0.091348                       # miss rate for demand accesses (Ratio)
board.cache_hierarchy.l2_cache.demandMissRate::processor.cores.core.inst     0.413919                       # miss rate for demand accesses (Ratio)
board.cache_hierarchy.l2_cache.demandMissRate::processor.cores.core.data     0.453678                       # miss rate for demand accesses (Ratio)
board.cache_hierarchy.l2_cache.demandMissRate::total     0.111745                       # miss rate for demand accesses (Ratio)
board.cache_hierarchy.l2_cache.overallMissRate::cache_hierarchy.l1_dcaches.prefetcher     0.091348                       # miss rate for overall accesses (Ratio)
board.cache_hierarchy.l2_cache.overallMissRate::processor.cores.core.inst     0.413919                       # miss rate for overall accesses (Ratio)
board.cache_hierarchy.l2_cache.overallMissRate::processor.cores.core.data     0.453678                       # miss rate for overall accesses (Ratio)
board.cache_hierarchy.l2_cache.overallMissRate::total     0.111745                       # miss rate for overall accesses (Ratio)
board.cache_hierarchy.l2_cache.demandAvgMissLatency::cache_hierarchy.l1_dcaches.prefetcher 22215.810847                       # average overall miss latency in ticks ((Tick/Count))
board.cache_hierarchy.l2_cache.demandAvgMissLatency::processor.cores.core.inst 72393.610619                       # average overall miss latency in ticks ((Tick/Count))
board.cache_hierarchy.l2_cache.demandAvgMissLatency::processor.cores.core.data        48972                       # average overall miss latency in ticks ((Tick/Count))
board.cache_hierarchy.l2_cache.demandAvgMissLatency::total 29733.161897                       # average overall miss latency in ticks ((Tick/Count))
board.cache_hierarchy.l2_cache.overallAvgMissLatency::cache_hierarchy.l1_dcaches.prefetcher 22215.810847                       # average overall miss latency ((Tick/Count))
board.cache_hierarchy.l2_cache.overallAvgMissLatency::processor.cores.core.inst 72393.610619                       # average overall miss latency ((Tick/Count))
board.cache_hierarchy.l2_cache.overallAvgMissLatency::processor.cores.core.data        48972                       # average overall miss latency ((Tick/Count))
board.cache_hierarchy.l2_cache.overallAvgMissLatency::total 29733.161897                       # average overall miss latency ((Tick/Count))
board.cache_hierarchy.l2_cache.blockedCycles::no_mshrs            0                       # number of cycles access was blocked (Cycle)
board.cache_hierarchy.l2_cache.blockedCycles::no_targets            0                       # number of cycles access was blocked (Cycle)
board.cache_hierarchy.l2_cache.blockedCauses::no_mshrs            0                       # number of times access was blocked (Count)
board.cache_hierarchy.l2_cache.blockedCauses::no_targets            0                       # number of times access was blocked (Count)
board.cache_hierarchy.l2_cache.avgBlocked::no_mshrs          nan                       # average number of cycles each access was blocked ((Cycle/Count))
board.cache_hierarchy.l2_cache.avgBlocked::no_targets          nan                       # average number of cycles each access was blocked ((Cycle/Count))
board.cache_hierarchy.l2_cache.writebacks::writebacks           99                       # number of writebacks (Count)
board.cache_hierarchy.l2_cache.writebacks::total           99                       # number of writebacks (Count)
board.cache_hierarchy.l2_cache.demandMshrHits::cache_hierarchy.l1_dcaches.prefetcher         2947                       # number of demand (read+write) MSHR hits (Count)
board.cache_hierarchy.l2_cache.demandMshrHits::processor.cores.core.inst           61                       # number of demand (read+write) MSHR hits (Count)
board.cache_hierarchy.l2_cache.demandMshrHits::processor.cores.core.data          434                       # number of demand (read+write) MSHR hits (Count)
board.cache_hierarchy.l2_cache.demandMshrHits::total         3442                       # number of demand (read+write) MSHR hits (Count)
board.cache_hierarchy.l2_cache.overallMshrHits::cache_hierarchy.l1_dcaches.prefetcher         2947                       # number of overall MSHR hits (Count)
board.cache_hierarchy.l2_cache.overallMshrHits::processor.cores.core.inst           61                       # number of overall MSHR hits (Count)
board.cache_hierarchy.l2_cache.overallMshrHits::processor.cores.core.data          434                       # number of overall MSHR hits (Count)
board.cache_hierarchy.l2_cache.overallMshrHits::total         3442                       # number of overall MSHR hits (Count)
board.cache_hierarchy.l2_cache.demandMshrMisses::cache_hierarchy.l1_dcaches.prefetcher           40                       # number of demand (read+write) MSHR misses (Count)
board.cache_hierarchy.l2_cache.demandMshrMisses::processor.cores.core.inst          165                       # number of demand (read+write) MSHR misses (Count)
board.cache_hierarchy.l2_cache.demandMshrMisses::processor.cores.core.data          232                       # number of demand (read+write) MSHR misses (Count)
board.cache_hierarchy.l2_cache.demandMshrMisses::total          437                       # number of demand (read+write) MSHR misses (Count)
board.cache_hierarchy.l2_cache.overallMshrMisses::cache_hierarchy.l1_dcaches.prefetcher           40                       # number of overall MSHR misses (Count)
board.cache_hierarchy.l2_cache.overallMshrMisses::cache_hierarchy.l2_cache.prefetcher         4860                       # number of overall MSHR misses (Count)
board.cache_hierarchy.l2_cache.overallMshrMisses::processor.cores.core.inst          165                       # number of overall MSHR misses (Count)
board.cache_hierarchy.l2_cache.overallMshrMisses::processor.cores.core.data          232                       # number of overall MSHR misses (Count)
board.cache_hierarchy.l2_cache.overallMshrMisses::total         5297                       # number of overall MSHR misses (Count)
board.cache_hierarchy.l2_cache.demandMshrMissLatency::cache_hierarchy.l1_dcaches.prefetcher      2887101                       # number of demand (read+write) MSHR miss ticks (Tick)
board.cache_hierarchy.l2_cache.demandMshrMissLatency::processor.cores.core.inst     12912408                       # number of demand (read+write) MSHR miss ticks (Tick)
board.cache_hierarchy.l2_cache.demandMshrMissLatency::processor.cores.core.data     17233083                       # number of demand (read+write) MSHR miss ticks (Tick)
board.cache_hierarchy.l2_cache.demandMshrMissLatency::total     33032592                       # number of demand (read+write) MSHR miss ticks (Tick)
board.cache_hierarchy.l2_cache.overallMshrMissLatency::cache_hierarchy.l1_dcaches.prefetcher      2887101                       # number of overall MSHR miss ticks (Tick)
board.cache_hierarchy.l2_cache.overallMshrMissLatency::cache_hierarchy.l2_cache.prefetcher    255990812                       # number of overall MSHR miss ticks (Tick)
board.cache_hierarchy.l2_cache.overallMshrMissLatency::processor.cores.core.inst     12912408                       # number of overall MSHR miss ticks (Tick)
board.cache_hierarchy.l2_cache.overallMshrMissLatency::processor.cores.core.data     17233083                       # number of overall MSHR miss ticks (Tick)
board.cache_hierarchy.l2_cache.overallMshrMissLatency::total    289023404                       # number of overall MSHR miss ticks (Tick)
board.cache_hierarchy.l2_cache.demandMshrMissRate::cache_hierarchy.l1_dcaches.prefetcher     0.001223                       # mshr miss ratio for demand accesses (Ratio)
board.cache_hierarchy.l2_cache.demandMshrMissRate::processor.cores.core.inst     0.302198                       # mshr miss ratio for demand accesses (Ratio)
board.cache_hierarchy.l2_cache.demandMshrMissRate::processor.cores.core.data     0.158038                       # mshr miss ratio for demand accesses (Ratio)
board.cache_hierarchy.l2_cache.demandMshrMissRate::total     0.012589                       # mshr miss ratio for demand accesses (Ratio)
board.cache_hierarchy.l2_cache.overallMshrMissRate::cache_hierarchy.l1_dcaches.prefetcher     0.001223                       # mshr miss ratio for overall accesses (Ratio)
board.cache_hierarchy.l2_cache.overallMshrMissRate::cache_hierarchy.l2_cache.prefetcher          inf                       # mshr miss ratio for overall accesses (Ratio)
board.cache_hierarchy.l2_cache.overallMshrMissRate::processor.cores.core.inst     0.302198                       # mshr miss ratio for overall accesses (Ratio)
board.cache_hierarchy.l2_cache.overallMshrMissRate::processor.cores.core.data     0.158038                       # mshr miss ratio for overall accesses (Ratio)
board.cache_hierarchy.l2_cache.overallMshrMissRate::total     0.152594                       # mshr miss ratio for overall accesses (Ratio)
board.cache_hierarchy.l2_cache.demandAvgMshrMissLatency::cache_hierarchy.l1_dcaches.prefetcher 72177.525000                       # average overall mshr miss latency ((Tick/Count))
board.cache_hierarchy.l2_cache.demandAvgMshrMissLatency::processor.cores.core.inst 78257.018182                       # average overall mshr miss latency ((Tick/Count))
board.cache_hierarchy.l2_cache.demandAvgMshrMissLatency::processor.cores.core.data 74280.530172                       # average overall mshr miss latency ((Tick/Count))
board.cache_hierarchy.l2_cache.demandAvgMshrMissLatency::total 75589.455378                       # average overall mshr miss latency ((Tick/Count))
board.cache_hierarchy.l2_cache.overallAvgMshrMissLatency::cache_hierarchy.l1_dcaches.prefetcher 72177.525000                       # average overall mshr miss latency ((Tick/Count))
board.cache_hierarchy.l2_cache.overallAvgMshrMissLatency::cache_hierarchy.l2_cache.prefetcher 52673.006584                       # average overall mshr miss latency ((Tick/Count))
board.cache_hierarchy.l2_cache.overallAvgMshrMissLatency::processor.cores.core.inst 78257.018182                       # average overall mshr miss latency ((Tick/Count))
board.cache_hierarchy.l2_cache.overallAvgMshrMissLatency::processor.cores.core.data 74280.530172                       # average overall mshr miss latency ((Tick/Count))
board.cache_hierarchy.l2_cache.overallAvgMshrMissLatency::total 54563.602794                       # average overall mshr miss latency ((Tick/Count))
board.cache_hierarchy.l2_cache.replacements         1186                       # number of replacements (Count)
board.cache_hierarchy.l2_cache.CleanEvict.mshrMisses::writebacks           61                       # number of CleanEvict MSHR misses (Count)
board.cache_hierarchy.l2_cache.CleanEvict.mshrMisses::total           61                       # number of CleanEvict MSHR misses (Count)
board.cache_hierarchy.l2_cache.CleanEvict.mshrMissRate::writebacks          inf                       # mshr miss rate for CleanEvict accesses (Ratio)
board.cache_hierarchy.l2_cache.CleanEvict.mshrMissRate::total          inf                       # mshr miss rate for CleanEvict accesses (Ratio)
board.cache_hierarchy.l2_cache.HardPFReq.mshrMisses::cache_hierarchy.l2_cache.prefetcher         4860                       # number of HardPFReq MSHR misses (Count)
board.cache_hierarchy.l2_cache.HardPFReq.mshrMisses::total         4860                       # number of HardPFReq MSHR misses (Count)
board.cache_hierarchy.l2_cache.HardPFReq.mshrMissLatency::cache_hierarchy.l2_cache.prefetcher    255990812                       # number of HardPFReq MSHR miss ticks (Tick)
board.cache_hierarchy.l2_cache.HardPFReq.mshrMissLatency::total    255990812                       # number of HardPFReq MSHR miss ticks (Tick)
board.cache_hierarchy.l2_cache.HardPFReq.mshrMissRate::cache_hierarchy.l2_cache.prefetcher          inf                       # mshr miss rate for HardPFReq accesses (Ratio)
board.cache_hierarchy.l2_cache.HardPFReq.mshrMissRate::total          inf                       # mshr miss rate for HardPFReq accesses (Ratio)
board.cache_hierarchy.l2_cache.HardPFReq.avgMshrMissLatency::cache_hierarchy.l2_cache.prefetcher 52673.006584                       # average HardPFReq mshr miss latency ((Tick/Count))
board.cache_hierarchy.l2_cache.HardPFReq.avgMshrMissLatency::total 52673.006584                       # average HardPFReq mshr miss latency ((Tick/Count))
board.cache_hierarchy.l2_cache.ReadExReq.hits::processor.cores.core.data          203                       # number of ReadExReq hits (Count)
board.cache_hierarchy.l2_cache.ReadExReq.hits::total          203                       # number of ReadExReq hits (Count)
board.cache_hierarchy.l2_cache.ReadExReq.misses::processor.cores.core.data          491                       # number of ReadExReq misses (Count)
board.cache_hierarchy.l2_cache.ReadExReq.misses::total          491                       # number of ReadExReq misses (Count)
board.cache_hierarchy.l2_cache.ReadExReq.missLatency::processor.cores.core.data     21681630                       # number of ReadExReq miss ticks (Tick)
board.cache_hierarchy.l2_cache.ReadExReq.missLatency::total     21681630                       # number of ReadExReq miss ticks (Tick)
board.cache_hierarchy.l2_cache.ReadExReq.accesses::processor.cores.core.data          694                       # number of ReadExReq accesses(hits+misses) (Count)
board.cache_hierarchy.l2_cache.ReadExReq.accesses::total          694                       # number of ReadExReq accesses(hits+misses) (Count)
board.cache_hierarchy.l2_cache.ReadExReq.missRate::processor.cores.core.data     0.707493                       # miss rate for ReadExReq accesses (Ratio)
board.cache_hierarchy.l2_cache.ReadExReq.missRate::total     0.707493                       # miss rate for ReadExReq accesses (Ratio)
board.cache_hierarchy.l2_cache.ReadExReq.avgMissLatency::processor.cores.core.data 44158.105906                       # average ReadExReq miss latency ((Tick/Count))
board.cache_hierarchy.l2_cache.ReadExReq.avgMissLatency::total 44158.105906                       # average ReadExReq miss latency ((Tick/Count))
board.cache_hierarchy.l2_cache.ReadExReq.mshrHits::processor.cores.core.data          378                       # number of ReadExReq MSHR hits (Count)
board.cache_hierarchy.l2_cache.ReadExReq.mshrHits::total          378                       # number of ReadExReq MSHR hits (Count)
board.cache_hierarchy.l2_cache.ReadExReq.mshrMisses::processor.cores.core.data          113                       # number of ReadExReq MSHR misses (Count)
board.cache_hierarchy.l2_cache.ReadExReq.mshrMisses::total          113                       # number of ReadExReq MSHR misses (Count)
board.cache_hierarchy.l2_cache.ReadExReq.mshrMissLatency::processor.cores.core.data      8566092                       # number of ReadExReq MSHR miss ticks (Tick)
board.cache_hierarchy.l2_cache.ReadExReq.mshrMissLatency::total      8566092                       # number of ReadExReq MSHR miss ticks (Tick)
board.cache_hierarchy.l2_cache.ReadExReq.mshrMissRate::processor.cores.core.data     0.162824                       # mshr miss rate for ReadExReq accesses (Ratio)
board.cache_hierarchy.l2_cache.ReadExReq.mshrMissRate::total     0.162824                       # mshr miss rate for ReadExReq accesses (Ratio)
board.cache_hierarchy.l2_cache.ReadExReq.avgMshrMissLatency::processor.cores.core.data 75806.123894                       # average ReadExReq mshr miss latency ((Tick/Count))
board.cache_hierarchy.l2_cache.ReadExReq.avgMshrMissLatency::total 75806.123894                       # average ReadExReq mshr miss latency ((Tick/Count))
board.cache_hierarchy.l2_cache.ReadSharedReq.hits::cache_hierarchy.l1_dcaches.prefetcher        29712                       # number of ReadSharedReq hits (Count)
board.cache_hierarchy.l2_cache.ReadSharedReq.hits::processor.cores.core.inst          320                       # number of ReadSharedReq hits (Count)
board.cache_hierarchy.l2_cache.ReadSharedReq.hits::processor.cores.core.data          599                       # number of ReadSharedReq hits (Count)
board.cache_hierarchy.l2_cache.ReadSharedReq.hits::total        30631                       # number of ReadSharedReq hits (Count)
board.cache_hierarchy.l2_cache.ReadSharedReq.misses::cache_hierarchy.l1_dcaches.prefetcher         2987                       # number of ReadSharedReq misses (Count)
board.cache_hierarchy.l2_cache.ReadSharedReq.misses::processor.cores.core.inst          226                       # number of ReadSharedReq misses (Count)
board.cache_hierarchy.l2_cache.ReadSharedReq.misses::processor.cores.core.data          175                       # number of ReadSharedReq misses (Count)
board.cache_hierarchy.l2_cache.ReadSharedReq.misses::total         3388                       # number of ReadSharedReq misses (Count)
board.cache_hierarchy.l2_cache.ReadSharedReq.missLatency::cache_hierarchy.l1_dcaches.prefetcher     66358627                       # number of ReadSharedReq miss ticks (Tick)
board.cache_hierarchy.l2_cache.ReadSharedReq.missLatency::processor.cores.core.inst     16360956                       # number of ReadSharedReq miss ticks (Tick)
board.cache_hierarchy.l2_cache.ReadSharedReq.missLatency::processor.cores.core.data     10933722                       # number of ReadSharedReq miss ticks (Tick)
board.cache_hierarchy.l2_cache.ReadSharedReq.missLatency::total     93653305                       # number of ReadSharedReq miss ticks (Tick)
board.cache_hierarchy.l2_cache.ReadSharedReq.accesses::cache_hierarchy.l1_dcaches.prefetcher        32699                       # number of ReadSharedReq accesses(hits+misses) (Count)
board.cache_hierarchy.l2_cache.ReadSharedReq.accesses::processor.cores.core.inst          546                       # number of ReadSharedReq accesses(hits+misses) (Count)
board.cache_hierarchy.l2_cache.ReadSharedReq.accesses::processor.cores.core.data          774                       # number of ReadSharedReq accesses(hits+misses) (Count)
board.cache_hierarchy.l2_cache.ReadSharedReq.accesses::total        34019                       # number of ReadSharedReq accesses(hits+misses) (Count)
board.cache_hierarchy.l2_cache.ReadSharedReq.missRate::cache_hierarchy.l1_dcaches.prefetcher     0.091348                       # miss rate for ReadSharedReq accesses (Ratio)
board.cache_hierarchy.l2_cache.ReadSharedReq.missRate::processor.cores.core.inst     0.413919                       # miss rate for ReadSharedReq accesses (Ratio)
board.cache_hierarchy.l2_cache.ReadSharedReq.missRate::processor.cores.core.data     0.226098                       # miss rate for ReadSharedReq accesses (Ratio)
board.cache_hierarchy.l2_cache.ReadSharedReq.missRate::total     0.099591                       # miss rate for ReadSharedReq accesses (Ratio)
board.cache_hierarchy.l2_cache.ReadSharedReq.avgMissLatency::cache_hierarchy.l1_dcaches.prefetcher 22215.810847                       # average ReadSharedReq miss latency ((Tick/Count))
board.cache_hierarchy.l2_cache.ReadSharedReq.avgMissLatency::processor.cores.core.inst 72393.610619                       # average ReadSharedReq miss latency ((Tick/Count))
board.cache_hierarchy.l2_cache.ReadSharedReq.avgMissLatency::processor.cores.core.data 62478.411429                       # average ReadSharedReq miss latency ((Tick/Count))
board.cache_hierarchy.l2_cache.ReadSharedReq.avgMissLatency::total 27642.652007                       # average ReadSharedReq miss latency ((Tick/Count))
board.cache_hierarchy.l2_cache.ReadSharedReq.mshrHits::cache_hierarchy.l1_dcaches.prefetcher         2947                       # number of ReadSharedReq MSHR hits (Count)
board.cache_hierarchy.l2_cache.ReadSharedReq.mshrHits::processor.cores.core.inst           61                       # number of ReadSharedReq MSHR hits (Count)
board.cache_hierarchy.l2_cache.ReadSharedReq.mshrHits::processor.cores.core.data           56                       # number of ReadSharedReq MSHR hits (Count)
board.cache_hierarchy.l2_cache.ReadSharedReq.mshrHits::total         3064                       # number of ReadSharedReq MSHR hits (Count)
board.cache_hierarchy.l2_cache.ReadSharedReq.mshrMisses::cache_hierarchy.l1_dcaches.prefetcher           40                       # number of ReadSharedReq MSHR misses (Count)
board.cache_hierarchy.l2_cache.ReadSharedReq.mshrMisses::processor.cores.core.inst          165                       # number of ReadSharedReq MSHR misses (Count)
board.cache_hierarchy.l2_cache.ReadSharedReq.mshrMisses::processor.cores.core.data          119                       # number of ReadSharedReq MSHR misses (Count)
board.cache_hierarchy.l2_cache.ReadSharedReq.mshrMisses::total          324                       # number of ReadSharedReq MSHR misses (Count)
board.cache_hierarchy.l2_cache.ReadSharedReq.mshrMissLatency::cache_hierarchy.l1_dcaches.prefetcher      2887101                       # number of ReadSharedReq MSHR miss ticks (Tick)
board.cache_hierarchy.l2_cache.ReadSharedReq.mshrMissLatency::processor.cores.core.inst     12912408                       # number of ReadSharedReq MSHR miss ticks (Tick)
board.cache_hierarchy.l2_cache.ReadSharedReq.mshrMissLatency::processor.cores.core.data      8666991                       # number of ReadSharedReq MSHR miss ticks (Tick)
board.cache_hierarchy.l2_cache.ReadSharedReq.mshrMissLatency::total     24466500                       # number of ReadSharedReq MSHR miss ticks (Tick)
board.cache_hierarchy.l2_cache.ReadSharedReq.mshrMissRate::cache_hierarchy.l1_dcaches.prefetcher     0.001223                       # mshr miss rate for ReadSharedReq accesses (Ratio)
board.cache_hierarchy.l2_cache.ReadSharedReq.mshrMissRate::processor.cores.core.inst     0.302198                       # mshr miss rate for ReadSharedReq accesses (Ratio)
board.cache_hierarchy.l2_cache.ReadSharedReq.mshrMissRate::processor.cores.core.data     0.153747                       # mshr miss rate for ReadSharedReq accesses (Ratio)
board.cache_hierarchy.l2_cache.ReadSharedReq.mshrMissRate::total     0.009524                       # mshr miss rate for ReadSharedReq accesses (Ratio)
board.cache_hierarchy.l2_cache.ReadSharedReq.avgMshrMissLatency::cache_hierarchy.l1_dcaches.prefetcher 72177.525000                       # average ReadSharedReq mshr miss latency ((Tick/Count))
board.cache_hierarchy.l2_cache.ReadSharedReq.avgMshrMissLatency::processor.cores.core.inst 78257.018182                       # average ReadSharedReq mshr miss latency ((Tick/Count))
board.cache_hierarchy.l2_cache.ReadSharedReq.avgMshrMissLatency::processor.cores.core.data 72831.857143                       # average ReadSharedReq mshr miss latency ((Tick/Count))
board.cache_hierarchy.l2_cache.ReadSharedReq.avgMshrMissLatency::total 75513.888889                       # average ReadSharedReq mshr miss latency ((Tick/Count))
board.cache_hierarchy.l2_cache.WritebackDirty.hits::writebacks        32572                       # number of WritebackDirty hits (Count)
board.cache_hierarchy.l2_cache.WritebackDirty.hits::total        32572                       # number of WritebackDirty hits (Count)
board.cache_hierarchy.l2_cache.WritebackDirty.accesses::writebacks        32572                       # number of WritebackDirty accesses(hits+misses) (Count)
board.cache_hierarchy.l2_cache.WritebackDirty.accesses::total        32572                       # number of WritebackDirty accesses(hits+misses) (Count)
board.cache_hierarchy.l2_cache.power_state.pwrStateResidencyTicks::UNDEFINED    253024056                       # Cumulative time (in ticks) in various power states (Tick)
board.cache_hierarchy.l2_cache.prefetcher.demandMshrMisses          437                       # demands not covered by prefetchs (Count)
board.cache_hierarchy.l2_cache.prefetcher.pfIssued         9371                       # number of hwpf issued (Count)
board.cache_hierarchy.l2_cache.prefetcher.pfUnused          273                       # number of HardPF blocks evicted w/o reference (Count)
board.cache_hierarchy.l2_cache.prefetcher.pfUseful          966                       # number of useful prefetch (Count)
board.cache_hierarchy.l2_cache.prefetcher.pfUsefulButMiss            0                       # number of hit on prefetch but cache block is not in an usable state (Count)
board.cache_hierarchy.l2_cache.prefetcher.accuracy     0.103084                       # accuracy of the prefetcher (Count)
board.cache_hierarchy.l2_cache.prefetcher.coverage     0.688525                       # coverage brought by this prefetcher (Count)
board.cache_hierarchy.l2_cache.prefetcher.pfHitInCache          677                       # number of prefetches hitting in cache (Count)
board.cache_hierarchy.l2_cache.prefetcher.pfHitInMSHR         3834                       # number of prefetches hitting in a MSHR (Count)
board.cache_hierarchy.l2_cache.prefetcher.pfHitInWB            0                       # number of prefetches hit in the Write Buffer (Count)
board.cache_hierarchy.l2_cache.prefetcher.pfLate         4511                       # number of late prefetches (hitting in cache, MSHR or WB) (Count)
board.cache_hierarchy.l2_cache.prefetcher.pfIdentified         9454                       # number of prefetch candidates identified (Count)
board.cache_hierarchy.l2_cache.prefetcher.pfBufferHit           46                       # number of redundant prefetches already in prefetch queue (Count)
board.cache_hierarchy.l2_cache.prefetcher.pfInCache            0                       # number of redundant prefetches already in cache/mshr dropped (Count)
[...]
board.processor.cores.core.fetch.nisnDist::2         6962      0.95%     47.63% # Number of instructions fetched each cycle (Total) (Count)
board.processor.cores.core.fetch.nisnDist::3         5188      0.71%     48.34% # Number of instructions fetched each cycle (Total) (Count)
board.processor.cores.core.fetch.nisnDist::4       168297     23.07%     71.41% # Number of instructions fetched each cycle (Total) (Count)
board.processor.cores.core.fetch.nisnDist::5        13110      1.80%     73.21% # Number of instructions fetched each cycle (Total) (Count)
board.processor.cores.core.fetch.nisnDist::6         5880      0.81%     74.01% # Number of instructions fetched each cycle (Total) (Count)
board.processor.cores.core.fetch.nisnDist::7         1331      0.18%     74.20% # Number of instructions fetched each cycle (Total) (Count)
board.processor.cores.core.fetch.nisnDist::8       188210     25.80%    100.00% # Number of instructions fetched each cycle (Total) (Count)
board.processor.cores.core.fetch.nisnDist::overflows            0      0.00%    100.00% # Number of instructions fetched each cycle (Total) (Count)
board.processor.cores.core.fetch.nisnDist::min_value            0                       # Number of instructions fetched each cycle (Total) (Count)
board.processor.cores.core.fetch.nisnDist::max_value            8                       # Number of instructions fetched each cycle (Total) (Count)
board.processor.cores.core.fetch.nisnDist::total       729410                       # Number of instructions fetched each cycle (Total) (Count)
board.processor.cores.core.fetchStats0.numInsts      2330192                       # Number of instructions fetched (thread level) (Count)
board.processor.cores.core.fetchStats0.numOps            0                       # Number of ops (including micro ops) fetched (thread level) (Count)
board.processor.cores.core.fetchStats0.fetchRate     3.066716                       # Number of inst fetches per cycle ((Count/Cycle))
board.processor.cores.core.fetchStats0.numBranches       133498                       # Number of branches fetched (Count)
board.processor.cores.core.fetchStats0.branchRate     0.175694                       # Number of branch fetches per cycle (Ratio)
board.processor.cores.core.fetchStats0.icacheStallCycles       224910                       # ICache total stall cycles (Cycle)
board.processor.cores.core.fetchStats0.numFetchSuspends            0                       # Number of times Execute suspended instruction fetching (Count)
board.processor.cores.core.iew.idleCycles            0                       # Number of cycles IEW is idle (Cycle)
board.processor.cores.core.iew.squashCycles         1567                       # Number of cycles IEW is squashing (Cycle)
board.processor.cores.core.iew.blockCycles        14430                       # Number of cycles IEW is blocking (Cycle)
board.processor.cores.core.iew.unblockCycles         1276                       # Number of cycles IEW is unblocking (Cycle)
board.processor.cores.core.iew.dispatchedInsts      2303485                       # Number of instructions dispatched to IQ (Count)
board.processor.cores.core.iew.dispSquashedInsts          239                       # Number of squashed instructions skipped by dispatch (Count)
board.processor.cores.core.iew.dispLoadInsts       995610                       # Number of dispatched load instructions (Count)
board.processor.cores.core.iew.dispStoreInsts       196332                       # Number of dispatched store instructions (Count)
board.processor.cores.core.iew.dispNonSpecInsts           78                       # Number of dispatched non-speculative instructions (Count)
board.processor.cores.core.iew.iqFullEvents          184                       # Number of times the IQ has become full, causing a stall (Count)
board.processor.cores.core.iew.lsqFullEvents         1095                       # Number of times the LSQ has become full, causing a stall (Count)
board.processor.cores.core.iew.memOrderViolationEvents           44                       # Number of memory order violations (Count)
board.processor.cores.core.iew.predictedTakenIncorrect         1002                       # Number of branches that were predicted taken incorrectly (Count)
board.processor.cores.core.iew.predictedNotTakenIncorrect          562                       # Number of branches that were predicted not taken incorrectly (Count)
board.processor.cores.core.iew.branchMispredicts         1564                       # Number of branch mispredicts detected at execute (Count)
board.processor.cores.core.iew.instsToCommit      2283298                       # Cumulative count of insts sent to commit (Count)
board.processor.cores.core.iew.writebackCount      2282870                       # Cumulative count of insts written-back (Count)
board.processor.cores.core.iew.producerInst      1942634                       # Number of instructions producing a value (Count)
board.processor.cores.core.iew.consumerInst      1958678                       # Number of instructions consuming a value (Count)
board.processor.cores.core.iew.wbRate        3.004437                       # Insts written-back per cycle ((Count/Cycle))
board.processor.cores.core.iew.wbFanout      0.991809                       # Average fanout of values written-back ((Count/Count))
board.processor.cores.core.lsq0.forwLoads       444462                       # Number of loads that had data forwarded from stores (Count)
board.processor.cores.core.lsq0.squashedLoads         8756                       # Number of loads squashed (Count)
board.processor.cores.core.lsq0.ignoredResponses           17                       # Number of memory responses ignored because the instruction is squashed (Count)
board.processor.cores.core.lsq0.memOrderViolation           44                       # Number of memory ordering violations (Count)
board.processor.cores.core.lsq0.squashedStores         1841                       # Number of stores squashed (Count)
board.processor.cores.core.lsq0.rescheduledLoads            0                       # Number of loads that were rescheduled (Count)
board.processor.cores.core.lsq0.blockedByCache          164                       # Number of times an access to memory failed due to the cache being blocked (Count)
board.processor.cores.core.lsq0.loadToUse::samples       986854                       # Distribution of cycle latency between the first time a load is issued and its completion (Unspecified)
board.processor.cores.core.lsq0.loadToUse::mean     2.821074                       # Distribution of cycle latency between the first time a load is issued and its completion (Unspecified)
board.processor.cores.core.lsq0.loadToUse::stdev     4.048023                       # Distribution of cycle latency between the first time a load is issued and its completion (Unspecified)
board.processor.cores.core.lsq0.loadToUse::0-9       985160     99.83%     99.83% # Distribution of cycle latency between the first time a load is issued and its completion (Unspecified)
board.processor.cores.core.lsq0.loadToUse::10-19          109      0.01%     99.84% # Distribution of cycle latency between the first time a load is issued and its completion (Unspecified)
board.processor.cores.core.lsq0.loadToUse::20-29         1188      0.12%     99.96% # Distribution of cycle latency between the first time a load is issued and its completion (Unspecified)
board.processor.cores.core.lsq0.loadToUse::30-39           47      0.00%     99.96% # Distribution of cycle latency between the first time a load is issued and its completion (Unspecified)
board.processor.cores.core.lsq0.loadToUse::40-49           40      0.00%     99.97% # Distribution of cycle latency between the first time a load is issued and its completion (Unspecified)
board.processor.cores.core.lsq0.loadToUse::50-59           25      0.00%     99.97% # Distribution of cycle latency between the first time a load is issued and its completion (Unspecified)
board.processor.cores.core.lsq0.loadToUse::60-69           50      0.01%     99.98% # Distribution of cycle latency between the first time a load is issued and its completion (Unspecified)
board.processor.cores.core.lsq0.loadToUse::70-79           10      0.00%     99.98% # Distribution of cycle latency between the first time a load is issued and its completion (Unspecified)
board.processor.cores.core.lsq0.loadToUse::80-89            8      0.00%     99.98% # Distribution of cycle latency between the first time a load is issued and its completion (Unspecified)
board.processor.cores.core.lsq0.loadToUse::90-99            5      0.00%     99.98% # Distribution of cycle latency between the first time a load is issued and its completion (Unspecified)
board.processor.cores.core.lsq0.loadToUse::100-109            9      0.00%     99.98% # Distribution of cycle latency between the first time a load is issued and its completion (Unspecified)
board.processor.cores.core.lsq0.loadToUse::110-119            5      0.00%     99.98% # Distribution of cycle latency between the first time a load is issued and its completion (Unspecified)
board.processor.cores.core.lsq0.loadToUse::130-139            4      0.00%     99.98% # Distribution of cycle latency between the first time a load is issued and its completion (Unspecified)
board.processor.cores.core.lsq0.loadToUse::140-149            3      0.00%     99.98% # Distribution of cycle latency between the first time a load is issued and its completion (Unspecified)
board.processor.cores.core.lsq0.loadToUse::150-159            8      0.00%     99.98% # Distribution of cycle latency between the first time a load is issued and its completion (Unspecified)
board.processor.cores.core.lsq0.loadToUse::160-169            4      0.00%     99.98% # Distribution of cycle latency between the first time a load is issued and its completion (Unspecified)
board.processor.cores.core.lsq0.loadToUse::170-179            8      0.00%     99.98% # Distribution of cycle latency between the first time a load is issued and its completion (Unspecified)
board.processor.cores.core.lsq0.loadToUse::180-189           29      0.00%     99.99% # Distribution of cycle latency between the first time a load is issued and its completion (Unspecified)
board.processor.cores.core.lsq0.loadToUse::190-199            7      0.00%     99.99% # Distribution of cycle latency between the first time a load is issued and its completion (Unspecified)
board.processor.cores.core.lsq0.loadToUse::200-209            9      0.00%     99.99% # Distribution of cycle latency between the first time a load is issued and its completion (Unspecified)
board.processor.cores.core.lsq0.loadToUse::210-219            5      0.00%     99.99% # Distribution of cycle latency between the first time a load is issued and its completion (Unspecified)
board.processor.cores.core.lsq0.loadToUse::220-229           36      0.00%     99.99% # Distribution of cycle latency between the first time a load is issued and its completion (Unspecified)
board.processor.cores.core.lsq0.loadToUse::230-239            5      0.00%     99.99% # Distribution of cycle latency between the first time a load is issued and its completion (Unspecified)
board.processor.cores.core.lsq0.loadToUse::240-249           11      0.00%     99.99% # Distribution of cycle latency between the first time a load is issued and its completion (Unspecified)
board.processor.cores.core.lsq0.loadToUse::250-259            5      0.00%     99.99% # Distribution of cycle latency between the first time a load is issued and its completion (Unspecified)
board.processor.cores.core.lsq0.loadToUse::260-269            8      0.00%     99.99% # Distribution of cycle latency between the first time a load is issued and its completion (Unspecified)
board.processor.cores.core.lsq0.loadToUse::270-279           14      0.00%    100.00% # Distribution of cycle latency between the first time a load is issued and its completion (Unspecified)
board.processor.cores.core.lsq0.loadToUse::280-289            7      0.00%    100.00% # Distribution of cycle latency between the first time a load is issued and its completion (Unspecified)
board.processor.cores.core.lsq0.loadToUse::290-299            6      0.00%    100.00% # Distribution of cycle latency between the first time a load is issued and its completion (Unspecified)
board.processor.cores.core.lsq0.loadToUse::overflows           29      0.00%    100.00% # Distribution of cycle latency between the first time a load is issued and its completion (Unspecified)
board.processor.cores.core.lsq0.loadToUse::min_value            2                       # Distribution of cycle latency between the first time a load is issued and its completion (Unspecified)
board.processor.cores.core.lsq0.loadToUse::max_value          848                       # Distribution of cycle latency between the first time a load is issued and its completion (Unspecified)
board.processor.cores.core.lsq0.loadToUse::total       986854                       # Distribution of cycle latency between the first time a load is issued and its completion (Unspecified)
board.processor.cores.core.mmu.dtb.readHits            0                       # read hits (Count)
board.processor.cores.core.mmu.dtb.readMisses            0                       # read misses (Count)
board.processor.cores.core.mmu.dtb.readAccesses            0                       # read accesses (Count)
board.processor.cores.core.mmu.dtb.writeHits            0                       # write hits (Count)
board.processor.cores.core.mmu.dtb.writeMisses            0                       # write misses (Count)
board.processor.cores.core.mmu.dtb.writeAccesses            0                       # write accesses (Count)
board.processor.cores.core.mmu.dtb.hits             0                       # Total TLB (read and write) hits (Count)
board.processor.cores.core.mmu.dtb.misses            0                       # Total TLB (read and write) misses (Count)
board.processor.cores.core.mmu.dtb.accesses            0                       # Total TLB (read and write) accesses (Count)
board.processor.cores.core.mmu.dtb.walker.num_4kb_walks            0                       # Completed page walks with 4KB pages (Count)
board.processor.cores.core.mmu.dtb.walker.num_2mb_walks            0                       # Completed page walks with 2MB pages (Count)
board.processor.cores.core.mmu.dtb.walker.power_state.pwrStateResidencyTicks::UNDEFINED    253024056                       # Cumulative time (in ticks) in various power states (Tick)
board.processor.cores.core.mmu.itb.readHits            0                       # read hits (Count)
board.processor.cores.core.mmu.itb.readMisses            0                       # read misses (Count)
board.processor.cores.core.mmu.itb.readAccesses            0                       # read accesses (Count)
board.processor.cores.core.mmu.itb.writeHits            0                       # write hits (Count)
board.processor.cores.core.mmu.itb.writeMisses            0                       # write misses (Count)
board.processor.cores.core.mmu.itb.writeAccesses            0                       # write accesses (Count)
board.processor.cores.core.mmu.itb.hits             0                       # Total TLB (read and write) hits (Count)
board.processor.cores.core.mmu.itb.misses            0                       # Total TLB (read and write) misses (Count)
board.processor.cores.core.mmu.itb.accesses            0                       # Total TLB (read and write) accesses (Count)
board.processor.cores.core.mmu.itb.walker.num_4kb_walks            0                       # Completed page walks with 4KB pages (Count)
board.processor.cores.core.mmu.itb.walker.num_2mb_walks            0                       # Completed page walks with 2MB pages (Count)
board.processor.cores.core.mmu.itb.walker.power_state.pwrStateResidencyTicks::UNDEFINED    253024056                       # Cumulative time (in ticks) in various power states (Tick)
board.processor.cores.core.power_state.pwrStateResidencyTicks::ON    253024056                       # Cumulative time (in ticks) in various power states (Tick)
board.processor.cores.core.rename.squashCycles         1567                       # Number of cycles rename is squashing (Cycle)
board.processor.cores.core.rename.idleCycles       183767                       # Number of cycles rename is idle (Cycle)
board.processor.cores.core.rename.blockCycles        15902                       # Number of cycles rename is blocking (Cycle)
board.processor.cores.core.rename.serializeStallCycles         5008                       # count of cycles rename stalled for serializing inst (Cycle)
board.processor.cores.core.rename.runCycles       262044                       # Number of cycles rename is running (Cycle)
board.processor.cores.core.rename.unblockCycles       261122                       # Number of cycles rename is unblocking (Cycle)
board.processor.cores.core.rename.renamedInsts      2310521                       # Number of instructions processed by rename (Count)
board.processor.cores.core.rename.ROBFullEvents            2                       # Number of times rename has blocked due to ROB full (Count)
board.processor.cores.core.rename.IQFullEvents          290                       # Number of times rename has blocked due to IQ full (Count)
board.processor.cores.core.rename.LQFullEvents       196046                       # Number of times rename has blocked due to LQ full (Count)
board.processor.cores.core.rename.SQFullEvents        17020                       # Number of times rename has blocked due to SQ full (Count)
board.processor.cores.core.rename.renamedOperands      1987118                       # Number of destination operands rename has renamed (Count)
board.processor.cores.core.rename.lookups      2942827                       # Number of register rename lookups that rename has made (Count)
board.processor.cores.core.rename.intLookups      2505365                       # Number of integer rename lookups (Count)
board.processor.cores.core.rename.fpLookups       426652                       # Number of floating rename lookups (Count)
board.processor.cores.core.rename.committedMaps      1956319                       # Number of HB maps that are committed (Count)
board.processor.cores.core.rename.undoneMaps        30799                       # Number of HB maps that are undone due to squashing (Count)
board.processor.cores.core.rename.serializing           65                       # count of serializing insts renamed (Count)
board.processor.cores.core.rename.tempSerializing           65                       # count of temporary serializing insts renamed (Count)
board.processor.cores.core.rename.skidInsts       529118                       # count of insts added to the skid buffer (Count)
board.processor.cores.core.rob.reads          2514467                       # The number of ROB reads (Count)
board.processor.cores.core.rob.writes         4611361                       # The number of ROB writes (Count)
board.processor.cores.core.thread_0.numInsts      2269781                       # Number of Instructions committed (Count)
board.processor.cores.core.thread_0.numOps      2269828                       # Number of Ops committed (Count)
board.processor.cores.core.thread_0.numMemRefs            0                       # Number of Memory References (Count)
board.processor.cores.core.workload.numSyscalls           16                       # Number of system calls (Count)
board.workload.inst.arm                             0                       # number of arm instructions executed (Count)
board.workload.inst.quiesce                         0                       # number of quiesce instructions executed (Count)

---------- End Simulation Statistics   ----------
