
---------- Begin Simulation Statistics ----------
simSeconds                                   0.000857                       # Number of seconds simulated (Second)
simTicks                                    857194947                       # Number of ticks simulated (Tick)
finalTick                                   857194947                       # Number of ticks from beginning of simulation (restored from checkpoints and never reset) (Tick)
simFreq                                  1000000000000                       # The number of ticks per simulated second ((Tick/Second))
hostSeconds                                      4.39                       # Real time elapsed on the host (Second)
hostTickRate                                195432468                       # The number of ticks simulated per host second (ticks/s) ((Tick/Second))
hostMemory                                    8570904                       # Number of bytes of host memory used (Byte)
simInsts                                      2004201                       # Number of instructions simulated (Count)
simOps                                        2020634                       # Number of ops (including micro ops) simulated (Count)
hostInstRate                                   456933                       # Simulator instruction rate (inst/s) ((Count/Second))
hostOpRate                                     460679                       # Simulator op (including micro ops) rate (op/s) ((Count/Second))
board.cache_hierarchy.l1_dcaches.demandHits::processor.cores.core.data       849148                       # number of demand (read+write) hits (Count)
board.cache_hierarchy.l1_dcaches.demandHits::total       849148                       # number of demand (read+write) hits (Count)
board.cache_hierarchy.l1_dcaches.overallHits::processor.cores.core.data       849148                       # number of overall hits (Count)
board.cache_hierarchy.l1_dcaches.overallHits::total       849148                       # number of overall hits (Count)
board.cache_hierarchy.l1_dcaches.demandMisses::processor.cores.core.data        82287                       # number of demand (read+write) misses (Count)
board.cache_hierarchy.l1_dcaches.demandMisses::total        82287                       # number of demand (read+write) misses (Count)
board.cache_hierarchy.l1_dcaches.overallMisses::processor.cores.core.data        82287                       # number of overall misses (Count)
board.cache_hierarchy.l1_dcaches.overallMisses::total        82287                       # number of overall misses (Count)
board.cache_hierarchy.l1_dcaches.demandMissLatency::processor.cores.core.data   1015118762                       # number of demand (read+write) miss ticks (Tick)
board.cache_hierarchy.l1_dcaches.demandMissLatency::total   1015118762                       # number of demand (read+write) miss ticks (Tick)
board.cache_hierarchy.l1_dcaches.overallMissLatency::processor.cores.core.data   1015118762                       # number of overall miss ticks (Tick)
board.cache_hierarchy.l1_dcaches.overallMissLatency::total   1015118762                       # number of overall miss ticks (Tick)
board.cache_hierarchy.l1_dcaches.demandAccesses::processor.cores.core.data       931435                       # number of demand (read+write) accesses (Count)
board.cache_hierarchy.l1_dcaches.demandAccesses::total       931435                       # number of demand (read+write) accesses (Count)
board.cache_hierarchy.l1_dcaches.overallAccesses::processor.cores.core.data       931435                       # number of overall (read+write) accesses (Count)
board.cache_hierarchy.l1_dcaches.overallAccesses::total       931435                       # number of overall (read+write) accesses (Count)
board.cache_hierarchy.l1_dcaches.demandMissRate::processor.cores.core.data     0.088344                       # miss rate for demand accesses (Ratio)
board.cache_hierarchy.l1_dcaches.demandMissRate::total     0.088344                       # miss rate for demand accesses (Ratio)
board.cache_hierarchy.l1_dcaches.overallMissRate::processor.cores.core.data     0.088344                       # miss rate for overall accesses (Ratio)
board.cache_hierarchy.l1_dcaches.overallMissRate::total     0.088344                       # miss rate for overall accesses (Ratio)
board.cache_hierarchy.l1_dcaches.demandAvgMissLatency::processor.cores.core.data 12336.319978                       # average overall miss latency in ticks ((Tick/Count))
board.cache_hierarchy.l1_dcaches.demandAvgMissLatency::total 12336.319978                       # average overall miss latency in ticks ((Tick/Count))
board.cache_hierarchy.l1_dcaches.overallAvgMissLatency::processor.cores.core.data 12336.319978                       # average overall miss latency ((Tick/Count))
board.cache_hierarchy.l1_dcaches.overallAvgMissLatency::total 12336.319978                       # average overall miss latency ((Tick/Count))
board.cache_hierarchy.l1_dcaches.blockedCycles::no_mshrs       193828                       # number of cycles access was blocked (Cycle)
board.cache_hierarchy.l1_dcaches.blockedCycles::no_targets            0                       # number of cycles access was blocked (Cycle)
board.cache_hierarchy.l1_dcaches.blockedCauses::no_mshrs         7283                       # number of times access was blocked (Count)
board.cache_hierarchy.l1_dcaches.blockedCauses::no_targets            0                       # number of times access was blocked (Count)
board.cache_hierarchy.l1_dcaches.avgBlocked::no_mshrs    26.613758                       # average number of cycles each access was blocked ((Cycle/Count))
board.cache_hierarchy.l1_dcaches.avgBlocked::no_targets          nan                       # average number of cycles each access was blocked ((Cycle/Count))
board.cache_hierarchy.l1_dcaches.writebacks::writebacks        71558                       # number of writebacks (Count)
board.cache_hierarchy.l1_dcaches.writebacks::total        71558                       # number of writebacks (Count)
board.cache_hierarchy.l1_dcaches.demandMshrHits::processor.cores.core.data        10704                       # number of demand (read+write) MSHR hits (Count)
board.cache_hierarchy.l1_dcaches.demandMshrHits::total        10704                       # number of demand (read+write) MSHR hits (Count)
board.cache_hierarchy.l1_dcaches.overallMshrHits::processor.cores.core.data        10704                       # number of overall MSHR hits (Count)
board.cache_hierarchy.l1_dcaches.overallMshrHits::total        10704                       # number of overall MSHR hits (Count)
board.cache_hierarchy.l1_dcaches.demandMshrMisses::processor.cores.core.data        71583                       # number of demand (read+write) MSHR misses (Count)
board.cache_hierarchy.l1_dcaches.demandMshrMisses::total        71583                       # number of demand (read+write) MSHR misses (Count)
board.cache_hierarchy.l1_dcaches.overallMshrMisses::cache_hierarchy.l1_dcaches.prefetcher         1557                       # number of overall MSHR misses (Count)
board.cache_hierarchy.l1_dcaches.overallMshrMisses::processor.cores.core.data        71583                       # number of overall MSHR misses (Count)
board.cache_hierarchy.l1_dcaches.overallMshrMisses::total        73140                       # number of overall MSHR misses (Count)
board.cache_hierarchy.l1_dcaches.demandMshrMissLatency::processor.cores.core.data    827881891                       # number of demand (read+write) MSHR miss ticks (Tick)
board.cache_hierarchy.l1_dcaches.demandMshrMissLatency::total    827881891                       # number of demand (read+write) MSHR miss ticks (Tick)
board.cache_hierarchy.l1_dcaches.overallMshrMissLatency::cache_hierarchy.l1_dcaches.prefetcher     33271376                       # number of overall MSHR miss ticks (Tick)
board.cache_hierarchy.l1_dcaches.overallMshrMissLatency::processor.cores.core.data    827881891                       # number of overall MSHR miss ticks (Tick)
board.cache_hierarchy.l1_dcaches.overallMshrMissLatency::total    861153267                       # number of overall MSHR miss ticks (Tick)
board.cache_hierarchy.l1_dcaches.demandMshrMissRate::processor.cores.core.data     0.076852                       # mshr miss ratio for demand accesses (Ratio)
board.cache_hierarchy.l1_dcaches.demandMshrMissRate::total     0.076852                       # mshr miss ratio for demand accesses (Ratio)
board.cache_hierarchy.l1_dcaches.overallMshrMissRate::cache_hierarchy.l1_dcaches.prefetcher          inf                       # mshr miss ratio for overall accesses (Ratio)
board.cache_hierarchy.l1_dcaches.overallMshrMissRate::processor.cores.core.data     0.076852                       # mshr miss ratio for overall accesses (Ratio)
board.cache_hierarchy.l1_dcaches.overallMshrMissRate::total     0.078524                       # mshr miss ratio for overall accesses (Ratio)
board.cache_hierarchy.l1_dcaches.demandAvgMshrMissLatency::processor.cores.core.data 11565.342204                       # average overall mshr miss latency ((Tick/Count))
board.cache_hierarchy.l1_dcaches.demandAvgMshrMissLatency::total 11565.342204                       # average overall mshr miss latency ((Tick/Count))
board.cache_hierarchy.l1_dcaches.overallAvgMshrMissLatency::cache_hierarchy.l1_dcaches.prefetcher 21368.899165                       # average overall mshr miss latency ((Tick/Count))
board.cache_hierarchy.l1_dcaches.overallAvgMshrMissLatency::processor.cores.core.data 11565.342204                       # average overall mshr miss latency ((Tick/Count))
board.cache_hierarchy.l1_dcaches.overallAvgMshrMissLatency::total 11774.039746                       # average overall mshr miss latency ((Tick/Count))
board.cache_hierarchy.l1_dcaches.replacements        72632                       # number of replacements (Count)
board.cache_hierarchy.l1_dcaches.HardPFReq.mshrMisses::cache_hierarchy.l1_dcaches.prefetcher         1557                       # number of HardPFReq MSHR misses (Count)
board.cache_hierarchy.l1_dcaches.HardPFReq.mshrMisses::total         1557                       # number of HardPFReq MSHR misses (Count)
board.cache_hierarchy.l1_dcaches.HardPFReq.mshrMissLatency::cache_hierarchy.l1_dcaches.prefetcher     33271376                       # number of HardPFReq MSHR miss ticks (Tick)
board.cache_hierarchy.l1_dcaches.HardPFReq.mshrMissLatency::total     33271376                       # number of HardPFReq MSHR miss ticks (Tick)
board.cache_hierarchy.l1_dcaches.HardPFReq.mshrMissRate::cache_hierarchy.l1_dcaches.prefetcher          inf                       # mshr miss rate for HardPFReq accesses (Ratio)
board.cache_hierarchy.l1_dcaches.HardPFReq.mshrMissRate::total          inf                       # mshr miss rate for HardPFReq accesses (Ratio)
board.cache_hierarchy.l1_dcaches.HardPFReq.avgMshrMissLatency::cache_hierarchy.l1_dcaches.prefetcher 21368.899165                       # average HardPFReq mshr miss latency ((Tick/Count))
board.cache_hierarchy.l1_dcaches.HardPFReq.avgMshrMissLatency::total 21368.899165                       # average HardPFReq mshr miss latency ((Tick/Count))
board.cache_hierarchy.l1_dcaches.LoadLockedReq.hits::processor.cores.core.data        15878                       # number of LoadLockedReq hits (Count)
board.cache_hierarchy.l1_dcaches.LoadLockedReq.hits::total        15878                       # number of LoadLockedReq hits (Count)
board.cache_hierarchy.l1_dcaches.LoadLockedReq.misses::processor.cores.core.data            3                       # number of LoadLockedReq misses (Count)
board.cache_hierarchy.l1_dcaches.LoadLockedReq.misses::total            3                       # number of LoadLockedReq misses (Count)
board.cache_hierarchy.l1_dcaches.LoadLockedReq.missLatency::processor.cores.core.data        26640                       # number of LoadLockedReq miss ticks (Tick)
board.cache_hierarchy.l1_dcaches.LoadLockedReq.missLatency::total        26640                       # number of LoadLockedReq miss ticks (Tick)
board.cache_hierarchy.l1_dcaches.LoadLockedReq.accesses::processor.cores.core.data        15881                       # number of LoadLockedReq accesses(hits+misses) (Count)
board.cache_hierarchy.l1_dcaches.LoadLockedReq.accesses::total        15881                       # number of LoadLockedReq accesses(hits+misses) (Count)
board.cache_hierarchy.l1_dcaches.LoadLockedReq.missRate::processor.cores.core.data     0.000189                       # miss rate for LoadLockedReq accesses (Ratio)
board.cache_hierarchy.l1_dcaches.LoadLockedReq.missRate::total     0.000189                       # miss rate for LoadLockedReq accesses (Ratio)
board.cache_hierarchy.l1_dcaches.LoadLockedReq.avgMissLatency::processor.cores.core.data         8880                       # average LoadLockedReq miss latency ((Tick/Count))
board.cache_hierarchy.l1_dcaches.LoadLockedReq.avgMissLatency::total         8880                       # average LoadLockedReq miss latency ((Tick/Count))
board.cache_hierarchy.l1_dcaches.LoadLockedReq.mshrMisses::processor.cores.core.data            3                       # number of LoadLockedReq MSHR misses (Count)
board.cache_hierarchy.l1_dcaches.LoadLockedReq.mshrMisses::total            3                       # number of LoadLockedReq MSHR misses (Count)
board.cache_hierarchy.l1_dcaches.LoadLockedReq.mshrMissLatency::processor.cores.core.data        24642                       # number of LoadLockedReq MSHR miss ticks (Tick)
board.cache_hierarchy.l1_dcaches.LoadLockedReq.mshrMissLatency::total        24642                       # number of LoadLockedReq MSHR miss ticks (Tick)
board.cache_hierarchy.l1_dcaches.LoadLockedReq.mshrMissRate::processor.cores.core.data     0.000189                       # mshr miss rate for LoadLockedReq accesses (Ratio)
board.cache_hierarchy.l1_dcaches.LoadLockedReq.mshrMissRate::total     0.000189                       # mshr miss rate for LoadLockedReq accesses (Ratio)
board.cache_hierarchy.l1_dcaches.LoadLockedReq.avgMshrMissLatency::processor.cores.core.data         8214                       # average LoadLockedReq mshr miss latency ((Tick/Count))
board.cache_hierarchy.l1_dcaches.LoadLockedReq.avgMshrMissLatency::total         8214                       # average LoadLockedReq mshr miss latency ((Tick/Count))
board.cache_hierarchy.l1_dcaches.ReadReq.hits::processor.cores.core.data       580847                       # number of ReadReq hits (Count)
board.cache_hierarchy.l1_dcaches.ReadReq.hits::total       580847                       # number of ReadReq hits (Count)
board.cache_hierarchy.l1_dcaches.ReadReq.misses::processor.cores.core.data        65299                       # number of ReadReq misses (Count)
board.cache_hierarchy.l1_dcaches.ReadReq.misses::total        65299                       # number of ReadReq misses (Count)
board.cache_hierarchy.l1_dcaches.ReadReq.missLatency::processor.cores.core.data    598920147                       # number of ReadReq miss ticks (Tick)
board.cache_hierarchy.l1_dcaches.ReadReq.missLatency::total    598920147                       # number of ReadReq miss ticks (Tick)
board.cache_hierarchy.l1_dcaches.ReadReq.accesses::processor.cores.core.data       646146                       # number of ReadReq accesses(hits+misses) (Count)
board.cache_hierarchy.l1_dcaches.ReadReq.accesses::total       646146                       # number of ReadReq accesses(hits+misses) (Count)
board.cache_hierarchy.l1_dcaches.ReadReq.missRate::processor.cores.core.data     0.101059                       # miss rate for ReadReq accesses (Ratio)
board.cache_hierarchy.l1_dcaches.ReadReq.missRate::total     0.101059                       # miss rate for ReadReq accesses (Ratio)
board.cache_hierarchy.l1_dcaches.ReadReq.avgMissLatency::processor.cores.core.data  9171.965068                       # average ReadReq miss latency ((Tick/Count))
board.cache_hierarchy.l1_dcaches.ReadReq.avgMissLatency::total  9171.965068                       # average ReadReq miss latency ((Tick/Count))
board.cache_hierarchy.l1_dcaches.ReadReq.mshrHits::processor.cores.core.data         9136                       # number of ReadReq MSHR hits (Count)
board.cache_hierarchy.l1_dcaches.ReadReq.mshrHits::total         9136                       # number of ReadReq MSHR hits (Count)
board.cache_hierarchy.l1_dcaches.ReadReq.mshrMisses::processor.cores.core.data        56163                       # number of ReadReq MSHR misses (Count)
board.cache_hierarchy.l1_dcaches.ReadReq.mshrMisses::total        56163                       # number of ReadReq MSHR misses (Count)
board.cache_hierarchy.l1_dcaches.ReadReq.mshrMissLatency::processor.cores.core.data    472558968                       # number of ReadReq MSHR miss ticks (Tick)
board.cache_hierarchy.l1_dcaches.ReadReq.mshrMissLatency::total    472558968                       # number of ReadReq MSHR miss ticks (Tick)
board.cache_hierarchy.l1_dcaches.ReadReq.mshrMissRate::processor.cores.core.data     0.086920                       # mshr miss rate for ReadReq accesses (Ratio)
board.cache_hierarchy.l1_dcaches.ReadReq.mshrMissRate::total     0.086920                       # mshr miss rate for ReadReq accesses (Ratio)
board.cache_hierarchy.l1_dcaches.ReadReq.avgMshrMissLatency::processor.cores.core.data  8414.062069                       # average ReadReq mshr miss latency ((Tick/Count))
board.cache_hierarchy.l1_dcaches.ReadReq.avgMshrMissLatency::total  8414.062069                       # average ReadReq mshr miss latency ((Tick/Count))
board.cache_hierarchy.l1_dcaches.StoreCondReq.hits::processor.cores.core.data         8203                       # number of StoreCondReq hits (Count)
board.cache_hierarchy.l1_dcaches.StoreCondReq.hits::total         8203                       # number of StoreCondReq hits (Count)
board.cache_hierarchy.l1_dcaches.StoreCondReq.accesses::processor.cores.core.data         8203                       # number of StoreCondReq accesses(hits+misses) (Count)
board.cache_hierarchy.l1_dcaches.StoreCondReq.accesses::total         8203                       # number of StoreCondReq accesses(hits+misses) (Count)
board.cache_hierarchy.l1_dcaches.SwapReq.hits::processor.cores.core.data         8210                       # number of SwapReq hits (Count)
board.cache_hierarchy.l1_dcaches.SwapReq.hits::total         8210                       # number of SwapReq hits (Count)
board.cache_hierarchy.l1_dcaches.SwapReq.misses::processor.cores.core.data            1                       # number of SwapReq misses (Count)
board.cache_hierarchy.l1_dcaches.SwapReq.misses::total            1                       # number of SwapReq misses (Count)
board.cache_hierarchy.l1_dcaches.SwapReq.missLatency::processor.cores.core.data         8658                       # number of SwapReq miss ticks (Tick)
board.cache_hierarchy.l1_dcaches.SwapReq.missLatency::total         8658                       # number of SwapReq miss ticks (Tick)
board.cache_hierarchy.l1_dcaches.SwapReq.accesses::processor.cores.core.data         8211                       # number of SwapReq accesses(hits+misses) (Count)
board.cache_hierarchy.l1_dcaches.SwapReq.accesses::total         8211                       # number of SwapReq accesses(hits+misses) (Count)
board.cache_hierarchy.l1_dcaches.SwapReq.missRate::processor.cores.core.data     0.000122                       # miss rate for SwapReq accesses (Ratio)
board.cache_hierarchy.l1_dcaches.SwapReq.missRate::total     0.000122                       # miss rate for SwapReq accesses (Ratio)
board.cache_hierarchy.l1_dcaches.SwapReq.avgMissLatency::processor.cores.core.data         8658                       # average SwapReq miss latency ((Tick/Count))
board.cache_hierarchy.l1_dcaches.SwapReq.avgMissLatency::total         8658                       # average SwapReq miss latency ((Tick/Count))
board.cache_hierarchy.l1_dcaches.SwapReq.mshrMisses::processor.cores.core.data            1                       # number of SwapReq MSHR misses (Count)
board.cache_hierarchy.l1_dcaches.SwapReq.mshrMisses::total            1                       # number of SwapReq MSHR misses (Count)
board.cache_hierarchy.l1_dcaches.SwapReq.mshrMissLatency::processor.cores.core.data         7992                       # number of SwapReq MSHR miss ticks (Tick)
board.cache_hierarchy.l1_dcaches.SwapReq.mshrMissLatency::total         7992                       # number of SwapReq MSHR miss ticks (Tick)
board.cache_hierarchy.l1_dcaches.SwapReq.mshrMissRate::processor.cores.core.data     0.000122                       # mshr miss rate for SwapReq accesses (Ratio)
board.cache_hierarchy.l1_dcaches.SwapReq.mshrMissRate::total     0.000122                       # mshr miss rate for SwapReq accesses (Ratio)
board.cache_hierarchy.l1_dcaches.SwapReq.avgMshrMissLatency::processor.cores.core.data         7992                       # average SwapReq mshr miss latency ((Tick/Count))
board.cache_hierarchy.l1_dcaches.SwapReq.avgMshrMissLatency::total         7992                       # average SwapReq mshr miss latency ((Tick/Count))
board.cache_hierarchy.l1_dcaches.WriteReq.hits::processor.cores.core.data       268301                       # number of WriteReq hits (Count)
board.cache_hierarchy.l1_dcaches.WriteReq.hits::total       268301                       # number of WriteReq hits (Count)
board.cache_hierarchy.l1_dcaches.WriteReq.misses::processor.cores.core.data        16988                       # number of WriteReq misses (Count)
board.cache_hierarchy.l1_dcaches.WriteReq.misses::total        16988                       # number of WriteReq misses (Count)
board.cache_hierarchy.l1_dcaches.WriteReq.missLatency::processor.cores.core.data    416198615                       # number of WriteReq miss ticks (Tick)
board.cache_hierarchy.l1_dcaches.WriteReq.missLatency::total    416198615                       # number of WriteReq miss ticks (Tick)
board.cache_hierarchy.l1_dcaches.WriteReq.accesses::processor.cores.core.data       285289                       # number of WriteReq accesses(hits+misses) (Count)
board.cache_hierarchy.l1_dcaches.WriteReq.accesses::total       285289                       # number of WriteReq accesses(hits+misses) (Count)
board.cache_hierarchy.l1_dcaches.WriteReq.missRate::processor.cores.core.data     0.059547                       # miss rate for WriteReq accesses (Ratio)
board.cache_hierarchy.l1_dcaches.WriteReq.missRate::total     0.059547                       # miss rate for WriteReq accesses (Ratio)
board.cache_hierarchy.l1_dcaches.WriteReq.avgMissLatency::processor.cores.core.data 24499.565281                       # average WriteReq miss latency ((Tick/Count))
board.cache_hierarchy.l1_dcaches.WriteReq.avgMissLatency::total 24499.565281                       # average WriteReq miss latency ((Tick/Count))
board.cache_hierarchy.l1_dcaches.WriteReq.mshrHits::processor.cores.core.data         1568                       # number of WriteReq MSHR hits (Count)
board.cache_hierarchy.l1_dcaches.WriteReq.mshrHits::total         1568                       # number of WriteReq MSHR hits (Count)
board.cache_hierarchy.l1_dcaches.WriteReq.mshrMisses::processor.cores.core.data        15420                       # number of WriteReq MSHR misses (Count)
board.cache_hierarchy.l1_dcaches.WriteReq.mshrMisses::total        15420                       # number of WriteReq MSHR misses (Count)
board.cache_hierarchy.l1_dcaches.WriteReq.mshrMissLatency::processor.cores.core.data    355322923                       # number of WriteReq MSHR miss ticks (Tick)
board.cache_hierarchy.l1_dcaches.WriteReq.mshrMissLatency::total    355322923                       # number of WriteReq MSHR miss ticks (Tick)
board.cache_hierarchy.l1_dcaches.WriteReq.mshrMissRate::processor.cores.core.data     0.054050                       # mshr miss rate for WriteReq accesses (Ratio)
board.cache_hierarchy.l1_dcaches.WriteReq.mshrMissRate::total     0.054050                       # mshr miss rate for WriteReq accesses (Ratio)
board.cache_hierarchy.l1_dcaches.WriteReq.avgMshrMissLatency::processor.cores.core.data 23042.991115                       # average WriteReq mshr miss latency ((Tick/Count))
board.cache_hierarchy.l1_dcaches.WriteReq.avgMshrMissLatency::total 23042.991115                       # average WriteReq mshr miss latency ((Tick/Count))
board.cache_hierarchy.l1_dcaches.power_state.pwrStateResidencyTicks::UNDEFINED    857194947                       # Cumulative time (in ticks) in various power states (Tick)
board.cache_hierarchy.l1_dcaches.prefetcher.demandMshrMisses        71583                       # demands not covered by prefetchs (Count)
board.cache_hierarchy.l1_dcaches.prefetcher.pfIssued         2566                       # number of hwpf issued (Count)
board.cache_hierarchy.l1_dcaches.prefetcher.pfUnused          187                       # number of HardPF blocks evicted w/o reference (Count)
board.cache_hierarchy.l1_dcaches.prefetcher.pfUseful         1303                       # number of useful prefetch (Count)
board.cache_hierarchy.l1_dcaches.prefetcher.pfUsefulButMiss            0                       # number of hit on prefetch but cache block is not in an usable state (Count)
board.cache_hierarchy.l1_dcaches.prefetcher.accuracy     0.507794                       # accuracy of the prefetcher (Count)
board.cache_hierarchy.l1_dcaches.prefetcher.coverage     0.017877                       # coverage brought by this prefetcher (Count)
board.cache_hierarchy.l1_dcaches.prefetcher.pfHitInCache          855                       # number of prefetches hitting in cache (Count)
board.cache_hierarchy.l1_dcaches.prefetcher.pfHitInMSHR          154                       # number of prefetches hitting in a MSHR (Count)
board.cache_hierarchy.l1_dcaches.prefetcher.pfHitInWB            0                       # number of prefetches hit in the Write Buffer (Count)
board.cache_hierarchy.l1_dcaches.prefetcher.pfLate         1009                       # number of late prefetches (hitting in cache, MSHR or WB) (Count)
board.cache_hierarchy.l1_dcaches.prefetcher.pfIdentified        33758                       # number of prefetch candidates identified (Count)
board.cache_hierarchy.l1_dcaches.prefetcher.pfBufferHit        16488                       # number of redundant prefetches already in prefetch queue (Count)
board.cache_hierarchy.l1_dcaches.prefetcher.pfInCache            0                       # number of redundant prefetches already in cache/mshr dropped (Count)
board.cache_hierarchy.l1_dcaches.prefetcher.pfRemovedDemand         7789                       # number of prefetches dropped due to a demand for the same address (Count)
board.cache_hierarchy.l1_dcaches.prefetcher.pfRemovedFull            0                       # number of prefetches dropped due to prefetch queue size (Count)
board.cache_hierarchy.l1_dcaches.prefetcher.pfSpanPage         1346                       # number of prefetches that crossed the page (Count)
board.cache_hierarchy.l1_dcaches.prefetcher.pfUsefulSpanPage          167                       # number of prefetches that is useful and crossed the page (Count)
board.cache_hierarchy.l1_dcaches.prefetcher.power_state.pwrStateResidencyTicks::UNDEFINED    857194947                       # Cumulative time (in ticks) in various power states (Tick)
board.cache_hierarchy.l1_dcaches.tags.tagsInUse   505.968692                       # Average ticks per tags in use ((Tick/Count))
board.cache_hierarchy.l1_dcaches.tags.totalRefs       954583                       # Total number of references to valid blocks. (Count)
board.cache_hierarchy.l1_dcaches.tags.sampledRefs        73144                       # Sample count of references to valid blocks. (Count)
board.cache_hierarchy.l1_dcaches.tags.avgRefs    13.050736                       # Average number of references to valid blocks. ((Count/Count))
board.cache_hierarchy.l1_dcaches.tags.warmupTick       274392                       # The tick when the warmup percentage was hit. (Tick)
board.cache_hierarchy.l1_dcaches.tags.occupancies::cache_hierarchy.l1_dcaches.prefetcher    19.214902                       # Average occupied blocks per tick, per requestor ((Count/Tick))
board.cache_hierarchy.l1_dcaches.tags.occupancies::processor.cores.core.data   486.753790                       # Average occupied blocks per tick, per requestor ((Count/Tick))
board.cache_hierarchy.l1_dcaches.tags.avgOccs::cache_hierarchy.l1_dcaches.prefetcher     0.037529                       # Average percentage of cache occupancy ((Ratio/Tick))
board.cache_hierarchy.l1_dcaches.tags.avgOccs::processor.cores.core.data     0.950691                       # Average percentage of cache occupancy ((Ratio/Tick))
board.cache_hierarchy.l1_dcaches.tags.avgOccs::total     0.988220                       # Average percentage of cache occupancy ((Ratio/Tick))
board.cache_hierarchy.l1_dcaches.tags.occupanciesTaskId::1022            4                       # Occupied blocks per task id (Count)
board.cache_hierarchy.l1_dcaches.tags.occupanciesTaskId::1024          508                       # Occupied blocks per task id (Count)
board.cache_hierarchy.l1_dcaches.tags.ageTaskId_1022::0            4                       # Occupied blocks per task id, per block age (Count)
board.cache_hierarchy.l1_dcaches.tags.ageTaskId_1024::0          502                       # Occupied blocks per task id, per block age (Count)
board.cache_hierarchy.l1_dcaches.tags.ageTaskId_1024::1            5                       # Occupied blocks per task id, per block age (Count)
board.cache_hierarchy.l1_dcaches.tags.ageTaskId_1024::2            1                       # Occupied blocks per task id, per block age (Count)
board.cache_hierarchy.l1_dcaches.tags.ratioOccsTaskId::1022     0.007812                       # Ratio of occupied blocks and all blocks, per task id (Ratio)
board.cache_hierarchy.l1_dcaches.tags.ratioOccsTaskId::1024     0.992188                       # Ratio of occupied blocks and all blocks, per task id (Ratio)
board.cache_hierarchy.l1_dcaches.tags.tagAccesses      7782984                       # Number of tag accesses (Count)
board.cache_hierarchy.l1_dcaches.tags.dataAccesses      7782984                       # Number of data accesses (Count)
board.cache_hierarchy.l1_dcaches.tags.power_state.pwrStateResidencyTicks::UNDEFINED    857194947                       # Cumulative time (in ticks) in various power states (Tick)
board.cache_hierarchy.l1_icaches.demandHits::processor.cores.core.inst       363543                       # number of demand (read+write) hits (Count)
board.cache_hierarchy.l1_icaches.demandHits::total       363543                       # number of demand (read+write) hits (Count)
board.cache_hierarchy.l1_icaches.overallHits::processor.cores.core.inst       363543                       # number of overall hits (Count)
board.cache_hierarchy.l1_icaches.overallHits::total       363543                       # number of overall hits (Count)
board.cache_hierarchy.l1_icaches.demandMisses::processor.cores.core.inst          628                       # number of demand (read+write) misses (Count)
board.cache_hierarchy.l1_icaches.demandMisses::total          628                       # number of demand (read+write) misses (Count)
board.cache_hierarchy.l1_icaches.overallMisses::processor.cores.core.inst          628                       # number of overall misses (Count)
board.cache_hierarchy.l1_icaches.overallMisses::total          628                       # number of overall misses (Count)
board.cache_hierarchy.l1_icaches.demandMissLatency::processor.cores.core.inst     20396916                       # number of demand (read+write) miss ticks (Tick)
board.cache_hierarchy.l1_icaches.demandMissLatency::total     20396916                       # number of demand (read+write) miss ticks (Tick)
board.cache_hierarchy.l1_icaches.overallMissLatency::processor.cores.core.inst     20396916                       # number of overall miss ticks (Tick)
board.cache_hierarchy.l1_icaches.overallMissLatency::total     20396916                       # number of overall miss ticks (Tick)
board.cache_hierarchy.l1_icaches.demandAccesses::processor.cores.core.inst       364171                       # number of demand (read+write) accesses (Count)
board.cache_hierarchy.l1_icaches.demandAccesses::total       364171                       # number of demand (read+write) accesses (Count)
board.cache_hierarchy.l1_icaches.overallAccesses::processor.cores.core.inst       364171                       # number of overall (read+write) accesses (Count)
board.cache_hierarchy.l1_icaches.overallAccesses::total       364171                       # number of overall (read+write) accesses (Count)
board.cache_hierarchy.l1_icaches.demandMissRate::processor.cores.core.inst     0.001724                       # miss rate for demand accesses (Ratio)
board.cache_hierarchy.l1_icaches.demandMissRate::total     0.001724                       # miss rate for demand accesses (Ratio)
board.cache_hierarchy.l1_icaches.overallMissRate::processor.cores.core.inst     0.001724                       # miss rate for overall accesses (Ratio)
board.cache_hierarchy.l1_icaches.overallMissRate::total     0.001724                       # miss rate for overall accesses (Ratio)
board.cache_hierarchy.l1_icaches.demandAvgMissLatency::processor.cores.core.inst 32479.165605                       # average overall miss latency in ticks ((Tick/Count))
board.cache_hierarchy.l1_icaches.demandAvgMissLatency::total 32479.165605                       # average overall miss latency in ticks ((Tick/Count))
board.cache_hierarchy.l1_icaches.overallAvgMissLatency::processor.cores.core.inst 32479.165605                       # average overall miss latency ((Tick/Count))
board.cache_hierarchy.l1_icaches.overallAvgMissLatency::total 32479.165605                       # average overall miss latency ((Tick/Count))
board.cache_hierarchy.l1_icaches.blockedCycles::no_mshrs          115                       # number of cycles access was blocked (Cycle)
board.cache_hierarchy.l1_icaches.blockedCycles::no_targets            0                       # number of cycles access was blocked (Cycle)
board.cache_hierarchy.l1_icaches.blockedCauses::no_mshrs            5                       # number of times access was blocked (Count)
board.cache_hierarchy.l1_icaches.blockedCauses::no_targets            0                       # number of times access was blocked (Count)
board.cache_hierarchy.l1_icaches.avgBlocked::no_mshrs           23                       # average number of cycles each access was blocked ((Cycle/Count))
board.cache_hierarchy.l1_icaches.avgBlocked::no_targets          nan                       # average number of cycles each access was blocked ((Cycle/Count))
board.cache_hierarchy.l1_icaches.demandMshrHits::processor.cores.core.inst          108                       # number of demand (read+write) MSHR hits (Count)
board.cache_hierarchy.l1_icaches.demandMshrHits::total          108                       # number of demand (read+write) MSHR hits (Count)
board.cache_hierarchy.l1_icaches.overallMshrHits::processor.cores.core.inst          108                       # number of overall MSHR hits (Count)
board.cache_hierarchy.l1_icaches.overallMshrHits::total          108                       # number of overall MSHR hits (Count)
board.cache_hierarchy.l1_icaches.demandMshrMisses::processor.cores.core.inst          520                       # number of demand (read+write) MSHR misses (Count)
board.cache_hierarchy.l1_icaches.demandMshrMisses::total          520                       # number of demand (read+write) MSHR misses (Count)
board.cache_hierarchy.l1_icaches.overallMshrMisses::processor.cores.core.inst          520                       # number of overall MSHR misses (Count)
board.cache_hierarchy.l1_icaches.overallMshrMisses::total          520                       # number of overall MSHR misses (Count)
board.cache_hierarchy.l1_icaches.demandMshrMissLatency::processor.cores.core.inst     17142840                       # number of demand (read+write) MSHR miss ticks (Tick)
board.cache_hierarchy.l1_icaches.demandMshrMissLatency::total     17142840                       # number of demand (read+write) MSHR miss ticks (Tick)
board.cache_hierarchy.l1_icaches.overallMshrMissLatency::processor.cores.core.inst     17142840                       # number of overall MSHR miss ticks (Tick)
board.cache_hierarchy.l1_icaches.overallMshrMissLatency::total     17142840                       # number of overall MSHR miss ticks (Tick)
board.cache_hierarchy.l1_icaches.demandMshrMissRate::processor.cores.core.inst     0.001428                       # mshr miss ratio for demand accesses (Ratio)
board.cache_hierarchy.l1_icaches.demandMshrMissRate::total     0.001428                       # mshr miss ratio for demand accesses (Ratio)
board.cache_hierarchy.l1_icaches.overallMshrMissRate::processor.cores.core.inst     0.001428                       # mshr miss ratio for overall accesses (Ratio)
board.cache_hierarchy.l1_icaches.overallMshrMissRate::total     0.001428                       # mshr miss ratio for overall accesses (Ratio)
board.cache_hierarchy.l1_icaches.demandAvgMshrMissLatency::processor.cores.core.inst        32967                       # average overall mshr miss latency ((Tick/Count))
board.cache_hierarchy.l1_icaches.demandAvgMshrMissLatency::total        32967                       # average overall mshr miss latency ((Tick/Count))
board.cache_hierarchy.l1_icaches.overallAvgMshrMissLatency::processor.cores.core.inst        32967                       # average overall mshr miss latency ((Tick/Count))
board.cache_hierarchy.l1_icaches.overallAvgMshrMissLatency::total        32967                       # average overall mshr miss latency ((Tick/Count))
board.cache_hierarchy.l1_icaches.replacements           69                       # number of replacements (Count)
board.cache_hierarchy.l1_icaches.ReadReq.hits::processor.cores.core.inst       363543                       # number of ReadReq hits (Count)
board.cache_hierarchy.l1_icaches.ReadReq.hits::total       363543                       # number of ReadReq hits (Count)
board.cache_hierarchy.l1_icaches.ReadReq.misses::processor.cores.core.inst          628                       # number of ReadReq misses (Count)
board.cache_hierarchy.l1_icaches.ReadReq.misses::total          628                       # number of ReadReq misses (Count)
board.cache_hierarchy.l1_icaches.ReadReq.missLatency::processor.cores.core.inst     20396916                       # number of ReadReq miss ticks (Tick)
board.cache_hierarchy.l1_icaches.ReadReq.missLatency::total     20396916                       # number of ReadReq miss ticks (Tick)
board.cache_hierarchy.l1_icaches.ReadReq.accesses::processor.cores.core.inst       364171                       # number of ReadReq accesses(hits+misses) (Count)
board.cache_hierarchy.l1_icaches.ReadReq.accesses::total       364171                       # number of ReadReq accesses(hits+misses) (Count)
board.cache_hierarchy.l1_icaches.ReadReq.missRate::processor.cores.core.inst     0.001724                       # miss rate for ReadReq accesses (Ratio)
board.cache_hierarchy.l1_icaches.ReadReq.missRate::total     0.001724                       # miss rate for ReadReq accesses (Ratio)
board.cache_hierarchy.l1_icaches.ReadReq.avgMissLatency::processor.cores.core.inst 32479.165605                       # average ReadReq miss latency ((Tick/Count))
board.cache_hierarchy.l1_icaches.ReadReq.avgMissLatency::total 32479.165605                       # average ReadReq miss latency ((Tick/Count))
board.cache_hierarchy.l1_icaches.ReadReq.mshrHits::processor.cores.core.inst          108                       # number of ReadReq MSHR hits (Count)
board.cache_hierarchy.l1_icaches.ReadReq.mshrHits::total          108                       # number of ReadReq MSHR hits (Count)
board.cache_hierarchy.l1_icaches.ReadReq.mshrMisses::processor.cores.core.inst          520                       # number of ReadReq MSHR misses (Count)
board.cache_hierarchy.l1_icaches.ReadReq.mshrMisses::total          520                       # number of ReadReq MSHR misses (Count)
board.cache_hierarchy.l1_icaches.ReadReq.mshrMissLatency::processor.cores.core.inst     17142840                       # number of ReadReq MSHR miss ticks (Tick)
board.cache_hierarchy.l1_icaches.ReadReq.mshrMissLatency::total     17142840                       # number of ReadReq MSHR miss ticks (Tick)
board.cache_hierarchy.l1_icaches.ReadReq.mshrMissRate::processor.cores.core.inst     0.001428                       # mshr miss rate for ReadReq accesses (Ratio)
board.cache_hierarchy.l1_icaches.ReadReq.mshrMissRate::total     0.001428                       # mshr miss rate for ReadReq accesses (Ratio)
board.cache_hierarchy.l1_icaches.ReadReq.avgMshrMissLatency::processor.cores.core.inst        32967                       # average ReadReq mshr miss latency ((Tick/Count))
board.cache_hierarchy.l1_icaches.ReadReq.avgMshrMissLatency::total        32967                       # average ReadReq mshr miss latency ((Tick/Count))
board.cache_hierarchy.l1_icaches.power_state.pwrStateResidencyTicks::UNDEFINED    857194947                       # Cumulative time (in ticks) in various power states (Tick)
board.cache_hierarchy.l1_icaches.tags.tagsInUse   346.242241                       # Average ticks per tags in use ((Tick/Count))
board.cache_hierarchy.l1_icaches.tags.totalRefs       364063                       # Total number of references to valid blocks. (Count)
board.cache_hierarchy.l1_icaches.tags.sampledRefs          520                       # Sample count of references to valid blocks. (Count)
board.cache_hierarchy.l1_icaches.tags.avgRefs   700.121154                       # Average number of references to valid blocks. ((Count/Count))
board.cache_hierarchy.l1_icaches.tags.warmupTick        86580                       # The tick when the warmup percentage was hit. (Tick)
board.cache_hierarchy.l1_icaches.tags.occupancies::processor.cores.core.inst   346.242241                       # Average occupied blocks per tick, per requestor ((Count/Tick))
board.cache_hierarchy.l1_icaches.tags.avgOccs::processor.cores.core.inst     0.676254                       # Average percentage of cache occupancy ((Ratio/Tick))
board.cache_hierarchy.l1_icaches.tags.avgOccs::total     0.676254                       # Average percentage of cache occupancy ((Ratio/Tick))
board.cache_hierarchy.l1_icaches.tags.occupanciesTaskId::1024          451                       # Occupied blocks per task id (Count)
board.cache_hierarchy.l1_icaches.tags.ageTaskId_1024::0          133                       # Occupied blocks per task id, per block age (Count)
board.cache_hierarchy.l1_icaches.tags.ageTaskId_1024::2          318                       # Occupied blocks per task id, per block age (Count)
board.cache_hierarchy.l1_icaches.tags.ratioOccsTaskId::1024     0.880859                       # Ratio of occupied blocks and all blocks, per task id (Ratio)
board.cache_hierarchy.l1_icaches.tags.tagAccesses      2913888                       # Number of tag accesses (Count)
board.cache_hierarchy.l1_icaches.tags.dataAccesses      2913888                       # Number of data accesses (Count)
board.cache_hierarchy.l1_icaches.tags.power_state.pwrStateResidencyTicks::UNDEFINED    857194947                       # Cumulative time (in ticks) in various power states (Tick)
board.cache_hierarchy.l2_bus.transDist::ReadResp        58243                       # Transaction distribution (Count)
board.cache_hierarchy.l2_bus.transDist::WritebackDirty        71558                       # Transaction distribution (Count)
board.cache_hierarchy.l2_bus.transDist::CleanEvict         1143                       # Transaction distribution (Count)
board.cache_hierarchy.l2_bus.transDist::HardPFReq         9816                       # Transaction distribution (Count)
board.cache_hierarchy.l2_bus.transDist::ReadExReq        15421                       # Transaction distribution (Count)
board.cache_hierarchy.l2_bus.transDist::ReadExResp        15421                       # Transaction distribution (Count)
board.cache_hierarchy.l2_bus.transDist::ReadSharedReq        58243                       # Transaction distribution (Count)
board.cache_hierarchy.l2_bus.pktCount_board.cache_hierarchy.l1_icaches.mem_side_port::board.cache_hierarchy.l2_cache.cpu_side_port         1109                       # Packet count per connected requestor and responder (Count)
board.cache_hierarchy.l2_bus.pktCount_board.cache_hierarchy.l1_dcaches.mem_side_port::board.cache_hierarchy.l2_cache.cpu_side_port       218920                       # Packet count per connected requestor and responder (Count)
board.cache_hierarchy.l2_bus.pktCount::total       220029                       # Packet count per connected requestor and responder (Count)
board.cache_hierarchy.l2_bus.pktSize_board.cache_hierarchy.l1_icaches.mem_side_port::board.cache_hierarchy.l2_cache.cpu_side_port        33280                       # Cumulative packet size per connected requestor and responder (Byte)
board.cache_hierarchy.l2_bus.pktSize_board.cache_hierarchy.l1_dcaches.mem_side_port::board.cache_hierarchy.l2_cache.cpu_side_port      9260928                       # Cumulative packet size per connected requestor and responder (Byte)
board.cache_hierarchy.l2_bus.pktSize::total      9294208                       # Cumulative packet size per connected requestor and responder (Byte)
board.cache_hierarchy.l2_bus.snoops              9816                       # Total snoops (Count)
board.cache_hierarchy.l2_bus.snoopTraffic            0                       # Total snoop traffic (Byte)
board.cache_hierarchy.l2_bus.snoopFanout::samples        83480                       # Request fanout histogram (Count)
board.cache_hierarchy.l2_bus.snoopFanout::mean     0.000012                       # Request fanout histogram (Count)
board.cache_hierarchy.l2_bus.snoopFanout::stdev     0.003461                       # Request fanout histogram (Count)
board.cache_hierarchy.l2_bus.snoopFanout::underflows            0      0.00%      0.00% # Request fanout histogram (Count)
board.cache_hierarchy.l2_bus.snoopFanout::0        83479    100.00%    100.00% # Request fanout histogram (Count)
board.cache_hierarchy.l2_bus.snoopFanout::1            1      0.00%    100.00% # Request fanout histogram (Count)
board.cache_hierarchy.l2_bus.snoopFanout::2            0      0.00%    100.00% # Request fanout histogram (Count)
board.cache_hierarchy.l2_bus.snoopFanout::overflows            0      0.00%    100.00% # Request fanout histogram (Count)
board.cache_hierarchy.l2_bus.snoopFanout::min_value            0                       # Request fanout histogram (Count)
board.cache_hierarchy.l2_bus.snoopFanout::max_value            1                       # Request fanout histogram (Count)
board.cache_hierarchy.l2_bus.snoopFanout::total        83480                       # Request fanout histogram (Count)
board.cache_hierarchy.l2_bus.power_state.pwrStateResidencyTicks::UNDEFINED    857194947                       # Cumulative time (in ticks) in various power states (Tick)
board.cache_hierarchy.l2_bus.reqLayer0.occupancy     96822141                       # Layer occupancy (ticks) (Tick)
board.cache_hierarchy.l2_bus.reqLayer0.utilization          0.1                       # Layer utilization (Ratio)
board.cache_hierarchy.l2_bus.respLayer0.occupancy       519480                       # Layer occupancy (ticks) (Tick)
board.cache_hierarchy.l2_bus.respLayer0.utilization          0.0                       # Layer utilization (Ratio)
board.cache_hierarchy.l2_bus.respLayer1.occupancy     73071520                       # Layer occupancy (ticks) (Tick)
board.cache_hierarchy.l2_bus.respLayer1.utilization          0.1                       # Layer utilization (Ratio)
board.cache_hierarchy.l2_bus.snoop_filter.totRequests       146365                       # Total number of requests made to the snoop filter. (Count)
board.cache_hierarchy.l2_bus.snoop_filter.hitSingleRequests        72701                       # Number of requests hitting in the snoop filter with a single holder of the requested data. (Count)
board.cache_hierarchy.l2_bus.snoop_filter.hitMultiRequests            1                       # Number of requests hitting in the snoop filter with multiple (>1) holders of the requested data. (Count)
board.cache_hierarchy.l2_bus.snoop_filter.totSnoops            0                       # Total number of snoops made to the snoop filter. (Count)
board.cache_hierarchy.l2_bus.snoop_filter.hitSingleSnoops            0                       # Number of snoops hitting in the snoop filter with a single holder of the requested data. (Count)
board.cache_hierarchy.l2_bus.snoop_filter.hitMultiSnoops            0                       # Number of snoops hitting in the snoop filter with multiple (>1) holders of the requested data. (Count)
board.cache_hierarchy.l2_cache.demandHits::cache_hierarchy.l1_dcaches.prefetcher          751                       # number of demand (read+write) hits (Count)
board.cache_hierarchy.l2_cache.demandHits::processor.cores.core.inst          319                       # number of demand (read+write) hits (Count)
board.cache_hierarchy.l2_cache.demandHits::processor.cores.core.data        64189                       # number of demand (read+write) hits (Count)
board.cache_hierarchy.l2_cache.demandHits::total        65259                       # number of demand (read+write) hits (Count)
board.cache_hierarchy.l2_cache.overallHits::cache_hierarchy.l1_dcaches.prefetcher          751                       # number of overall hits (Count)
board.cache_hierarchy.l2_cache.overallHits::processor.cores.core.inst          319                       # number of overall hits (Count)
board.cache_hierarchy.l2_cache.overallHits::processor.cores.core.data        64189                       # number of overall hits (Count)
board.cache_hierarchy.l2_cache.overallHits::total        65259                       # number of overall hits (Count)
board.cache_hierarchy.l2_cache.demandMisses::cache_hierarchy.l1_dcaches.prefetcher          806                       # number of demand (read+write) misses (Count)
board.cache_hierarchy.l2_cache.demandMisses::processor.cores.core.inst          201                       # number of demand (read+write) misses (Count)
board.cache_hierarchy.l2_cache.demandMisses::processor.cores.core.data         7398                       # number of demand (read+write) misses (Count)
board.cache_hierarchy.l2_cache.demandMisses::total         8405                       # number of demand (read+write) misses (Count)
board.cache_hierarchy.l2_cache.overallMisses::cache_hierarchy.l1_dcaches.prefetcher          806                       # number of overall misses (Count)
board.cache_hierarchy.l2_cache.overallMisses::processor.cores.core.inst          201                       # number of overall misses (Count)
board.cache_hierarchy.l2_cache.overallMisses::processor.cores.core.data         7398                       # number of overall misses (Count)
board.cache_hierarchy.l2_cache.overallMisses::total         8405                       # number of overall misses (Count)
board.cache_hierarchy.l2_cache.demandMissLatency::cache_hierarchy.l1_dcaches.prefetcher     26933178                       # number of demand (read+write) miss ticks (Tick)
board.cache_hierarchy.l2_cache.demandMissLatency::processor.cores.core.inst     14383269                       # number of demand (read+write) miss ticks (Tick)
board.cache_hierarchy.l2_cache.demandMissLatency::processor.cores.core.data    289755954                       # number of demand (read+write) miss ticks (Tick)
board.cache_hierarchy.l2_cache.demandMissLatency::total    331072401                       # number of demand (read+write) miss ticks (Tick)
board.cache_hierarchy.l2_cache.overallMissLatency::cache_hierarchy.l1_dcaches.prefetcher     26933178                       # number of overall miss ticks (Tick)
board.cache_hierarchy.l2_cache.overallMissLatency::processor.cores.core.inst     14383269                       # number of overall miss ticks (Tick)
board.cache_hierarchy.l2_cache.overallMissLatency::processor.cores.core.data    289755954                       # number of overall miss ticks (Tick)
board.cache_hierarchy.l2_cache.overallMissLatency::total    331072401                       # number of overall miss ticks (Tick)
board.cache_hierarchy.l2_cache.demandAccesses::cache_hierarchy.l1_dcaches.prefetcher         1557                       # number of demand (read+write) accesses (Count)
board.cache_hierarchy.l2_cache.demandAccesses::processor.cores.core.inst          520                       # number of demand (read+write) accesses (Count)
board.cache_hierarchy.l2_cache.demandAccesses::processor.cores.core.data        71587                       # number of demand (read+write) accesses (Count)
board.cache_hierarchy.l2_cache.demandAccesses::total        73664                       # number of demand (read+write) accesses (Count)
board.cache_hierarchy.l2_cache.overallAccesses::cache_hierarchy.l1_dcaches.prefetcher         1557                       # number of overall (read+write) accesses (Count)
board.cache_hierarchy.l2_cache.overallAccesses::processor.cores.core.inst          520                       # number of overall (read+write) accesses (Count)
board.cache_hierarchy.l2_cache.overallAccesses::processor.cores.core.data        71587                       # number of overall (read+write) accesses (Count)
board.cache_hierarchy.l2_cache.overallAccesses::total        73664                       # number of overall (read+write) accesses (Count)
board.cache_hierarchy.l2_cache.demandMissRate::cache_hierarchy.l1_dcaches.prefetcher     0.517662                       # miss rate for demand accesses (Ratio)
board.cache_hierarchy.l2_cache.demandMissRate::processor.cores.core.inst     0.386538                       # miss rate for demand accesses (Ratio)
board.cache_hierarchy.l2_cache.demandMissRate::processor.cores.core.data     0.103343                       # miss rate for demand accesses (Ratio)
board.cache_hierarchy.l2_cache.demandMissRate::total     0.114099                       # miss rate for demand accesses (Ratio)
board.cache_hierarchy.l2_cache.overallMissRate::cache_hierarchy.l1_dcaches.prefetcher     0.517662                       # miss rate for overall accesses (Ratio)
board.cache_hierarchy.l2_cache.overallMissRate::processor.cores.core.inst     0.386538                       # miss rate for overall accesses (Ratio)
board.cache_hierarchy.l2_cache.overallMissRate::processor.cores.core.data     0.103343                       # miss rate for overall accesses (Ratio)
board.cache_hierarchy.l2_cache.overallMissRate::total     0.114099                       # miss rate for overall accesses (Ratio)
board.cache_hierarchy.l2_cache.demandAvgMissLatency::cache_hierarchy.l1_dcaches.prefetcher 33415.853598                       # average overall miss latency in ticks ((Tick/Count))
board.cache_hierarchy.l2_cache.demandAvgMissLatency::processor.cores.core.inst 71558.552239                       # average overall miss latency in ticks ((Tick/Count))
board.cache_hierarchy.l2_cache.demandAvgMissLatency::processor.cores.core.data 39166.795620                       # average overall miss latency in ticks ((Tick/Count))
board.cache_hierarchy.l2_cache.demandAvgMissLatency::total 39389.934682                       # average overall miss latency in ticks ((Tick/Count))
board.cache_hierarchy.l2_cache.overallAvgMissLatency::cache_hierarchy.l1_dcaches.prefetcher 33415.853598                       # average overall miss latency ((Tick/Count))
board.cache_hierarchy.l2_cache.overallAvgMissLatency::processor.cores.core.inst 71558.552239                       # average overall miss latency ((Tick/Count))
board.cache_hierarchy.l2_cache.overallAvgMissLatency::processor.cores.core.data 39166.795620                       # average overall miss latency ((Tick/Count))
board.cache_hierarchy.l2_cache.overallAvgMissLatency::total 39389.934682                       # average overall miss latency ((Tick/Count))
board.cache_hierarchy.l2_cache.blockedCycles::no_mshrs            0                       # number of cycles access was blocked (Cycle)
board.cache_hierarchy.l2_cache.blockedCycles::no_targets            0                       # number of cycles access was blocked (Cycle)
board.cache_hierarchy.l2_cache.blockedCauses::no_mshrs            0                       # number of times access was blocked (Count)
board.cache_hierarchy.l2_cache.blockedCauses::no_targets            0                       # number of times access was blocked (Count)
board.cache_hierarchy.l2_cache.avgBlocked::no_mshrs          nan                       # average number of cycles each access was blocked ((Cycle/Count))
board.cache_hierarchy.l2_cache.avgBlocked::no_targets          nan                       # average number of cycles each access was blocked ((Cycle/Count))
board.cache_hierarchy.l2_cache.demandMshrHits::cache_hierarchy.l1_dcaches.prefetcher          773                       # number of demand (read+write) MSHR hits (Count)
board.cache_hierarchy.l2_cache.demandMshrHits::processor.cores.core.inst           59                       # number of demand (read+write) MSHR hits (Count)
board.cache_hierarchy.l2_cache.demandMshrHits::processor.cores.core.data         7124                       # number of demand (read+write) MSHR hits (Count)
board.cache_hierarchy.l2_cache.demandMshrHits::total         7956                       # number of demand (read+write) MSHR hits (Count)
board.cache_hierarchy.l2_cache.overallMshrHits::cache_hierarchy.l1_dcaches.prefetcher          773                       # number of overall MSHR hits (Count)
board.cache_hierarchy.l2_cache.overallMshrHits::processor.cores.core.inst           59                       # number of overall MSHR hits (Count)
board.cache_hierarchy.l2_cache.overallMshrHits::processor.cores.core.data         7124                       # number of overall MSHR hits (Count)
board.cache_hierarchy.l2_cache.overallMshrHits::total         7956                       # number of overall MSHR hits (Count)
board.cache_hierarchy.l2_cache.demandMshrMisses::cache_hierarchy.l1_dcaches.prefetcher           33                       # number of demand (read+write) MSHR misses (Count)
board.cache_hierarchy.l2_cache.demandMshrMisses::processor.cores.core.inst          142                       # number of demand (read+write) MSHR misses (Count)
board.cache_hierarchy.l2_cache.demandMshrMisses::processor.cores.core.data          274                       # number of demand (read+write) MSHR misses (Count)
board.cache_hierarchy.l2_cache.demandMshrMisses::total          449                       # number of demand (read+write) MSHR misses (Count)
board.cache_hierarchy.l2_cache.overallMshrMisses::cache_hierarchy.l1_dcaches.prefetcher           33                       # number of overall MSHR misses (Count)
board.cache_hierarchy.l2_cache.overallMshrMisses::cache_hierarchy.l2_cache.prefetcher         9340                       # number of overall MSHR misses (Count)
board.cache_hierarchy.l2_cache.overallMshrMisses::processor.cores.core.inst          142                       # number of overall MSHR misses (Count)
board.cache_hierarchy.l2_cache.overallMshrMisses::processor.cores.core.data          274                       # number of overall MSHR misses (Count)
board.cache_hierarchy.l2_cache.overallMshrMisses::total         9789                       # number of overall MSHR misses (Count)
board.cache_hierarchy.l2_cache.demandMshrMissLatency::cache_hierarchy.l1_dcaches.prefetcher      2309340                       # number of demand (read+write) MSHR miss ticks (Tick)
board.cache_hierarchy.l2_cache.demandMshrMissLatency::processor.cores.core.inst     10748907                       # number of demand (read+write) MSHR miss ticks (Tick)
board.cache_hierarchy.l2_cache.demandMshrMissLatency::processor.cores.core.data     21022956                       # number of demand (read+write) MSHR miss ticks (Tick)
board.cache_hierarchy.l2_cache.demandMshrMissLatency::total     34081203                       # number of demand (read+write) MSHR miss ticks (Tick)
board.cache_hierarchy.l2_cache.overallMshrMissLatency::cache_hierarchy.l1_dcaches.prefetcher      2309340                       # number of overall MSHR miss ticks (Tick)
board.cache_hierarchy.l2_cache.overallMshrMissLatency::cache_hierarchy.l2_cache.prefetcher    482920072                       # number of overall MSHR miss ticks (Tick)
board.cache_hierarchy.l2_cache.overallMshrMissLatency::processor.cores.core.inst     10748907                       # number of overall MSHR miss ticks (Tick)
board.cache_hierarchy.l2_cache.overallMshrMissLatency::processor.cores.core.data     21022956                       # number of overall MSHR miss ticks (Tick)
board.cache_hierarchy.l2_cache.overallMshrMissLatency::total    517001275                       # number of overall MSHR miss ticks (Tick)
board.cache_hierarchy.l2_cache.demandMshrMissRate::cache_hierarchy.l1_dcaches.prefetcher     0.021195                       # mshr miss ratio for demand accesses (Ratio)
board.cache_hierarchy.l2_cache.demandMshrMissRate::processor.cores.core.inst     0.273077                       # mshr miss ratio for demand accesses (Ratio)
board.cache_hierarchy.l2_cache.demandMshrMissRate::processor.cores.core.data     0.003828                       # mshr miss ratio for demand accesses (Ratio)
board.cache_hierarchy.l2_cache.demandMshrMissRate::total     0.006095                       # mshr miss ratio for demand accesses (Ratio)
board.cache_hierarchy.l2_cache.overallMshrMissRate::cache_hierarchy.l1_dcaches.prefetcher     0.021195                       # mshr miss ratio for overall accesses (Ratio)
board.cache_hierarchy.l2_cache.overallMshrMissRate::cache_hierarchy.l2_cache.prefetcher          inf                       # mshr miss ratio for overall accesses (Ratio)
board.cache_hierarchy.l2_cache.overallMshrMissRate::processor.cores.core.inst     0.273077                       # mshr miss ratio for overall accesses (Ratio)
board.cache_hierarchy.l2_cache.overallMshrMissRate::processor.cores.core.data     0.003828                       # mshr miss ratio for overall accesses (Ratio)
board.cache_hierarchy.l2_cache.overallMshrMissRate::total     0.132887                       # mshr miss ratio for overall accesses (Ratio)
board.cache_hierarchy.l2_cache.demandAvgMshrMissLatency::cache_hierarchy.l1_dcaches.prefetcher        69980                       # average overall mshr miss latency ((Tick/Count))
board.cache_hierarchy.l2_cache.demandAvgMshrMissLatency::processor.cores.core.inst 75696.528169                       # average overall mshr miss latency ((Tick/Count))
board.cache_hierarchy.l2_cache.demandAvgMshrMissLatency::processor.cores.core.data 76726.116788                       # average overall mshr miss latency ((Tick/Count))
board.cache_hierarchy.l2_cache.demandAvgMshrMissLatency::total 75904.683742                       # average overall mshr miss latency ((Tick/Count))
board.cache_hierarchy.l2_cache.overallAvgMshrMissLatency::cache_hierarchy.l1_dcaches.prefetcher        69980                       # average overall mshr miss latency ((Tick/Count))
board.cache_hierarchy.l2_cache.overallAvgMshrMissLatency::cache_hierarchy.l2_cache.prefetcher 51704.504497                       # average overall mshr miss latency ((Tick/Count))
board.cache_hierarchy.l2_cache.overallAvgMshrMissLatency::processor.cores.core.inst 75696.528169                       # average overall mshr miss latency ((Tick/Count))
board.cache_hierarchy.l2_cache.overallAvgMshrMissLatency::processor.cores.core.data 76726.116788                       # average overall mshr miss latency ((Tick/Count))
board.cache_hierarchy.l2_cache.overallAvgMshrMissLatency::total 52814.513740                       # average overall mshr miss latency ((Tick/Count))
board.cache_hierarchy.l2_cache.replacements            0                       # number of replacements (Count)
board.cache_hierarchy.l2_cache.HardPFReq.mshrMisses::cache_hierarchy.l2_cache.prefetcher         9340                       # number of HardPFReq MSHR misses (Count)
board.cache_hierarchy.l2_cache.HardPFReq.mshrMisses::total         9340                       # number of HardPFReq MSHR misses (Count)
board.cache_hierarchy.l2_cache.HardPFReq.mshrMissLatency::cache_hierarchy.l2_cache.prefetcher    482920072                       # number of HardPFReq MSHR miss ticks (Tick)
board.cache_hierarchy.l2_cache.HardPFReq.mshrMissLatency::total    482920072                       # number of HardPFReq MSHR miss ticks (Tick)
board.cache_hierarchy.l2_cache.HardPFReq.mshrMissRate::cache_hierarchy.l2_cache.prefetcher          inf                       # mshr miss rate for HardPFReq accesses (Ratio)
board.cache_hierarchy.l2_cache.HardPFReq.mshrMissRate::total          inf                       # mshr miss rate for HardPFReq accesses (Ratio)
board.cache_hierarchy.l2_cache.HardPFReq.avgMshrMissLatency::cache_hierarchy.l2_cache.prefetcher 51704.504497                       # average HardPFReq mshr miss latency ((Tick/Count))
board.cache_hierarchy.l2_cache.HardPFReq.avgMshrMissLatency::total 51704.504497                       # average HardPFReq mshr miss latency ((Tick/Count))
board.cache_hierarchy.l2_cache.ReadExReq.hits::processor.cores.core.data         8197                       # number of ReadExReq hits (Count)
board.cache_hierarchy.l2_cache.ReadExReq.hits::total         8197                       # number of ReadExReq hits (Count)
board.cache_hierarchy.l2_cache.ReadExReq.misses::processor.cores.core.data         7224                       # number of ReadExReq misses (Count)
board.cache_hierarchy.l2_cache.ReadExReq.misses::total         7224                       # number of ReadExReq misses (Count)
board.cache_hierarchy.l2_cache.ReadExReq.missLatency::processor.cores.core.data    279262125                       # number of ReadExReq miss ticks (Tick)
board.cache_hierarchy.l2_cache.ReadExReq.missLatency::total    279262125                       # number of ReadExReq miss ticks (Tick)
board.cache_hierarchy.l2_cache.ReadExReq.accesses::processor.cores.core.data        15421                       # number of ReadExReq accesses(hits+misses) (Count)
board.cache_hierarchy.l2_cache.ReadExReq.accesses::total        15421                       # number of ReadExReq accesses(hits+misses) (Count)
board.cache_hierarchy.l2_cache.ReadExReq.missRate::processor.cores.core.data     0.468452                       # miss rate for ReadExReq accesses (Ratio)
board.cache_hierarchy.l2_cache.ReadExReq.missRate::total     0.468452                       # miss rate for ReadExReq accesses (Ratio)
board.cache_hierarchy.l2_cache.ReadExReq.avgMissLatency::processor.cores.core.data 38657.547757                       # average ReadExReq miss latency ((Tick/Count))
board.cache_hierarchy.l2_cache.ReadExReq.avgMissLatency::total 38657.547757                       # average ReadExReq miss latency ((Tick/Count))
board.cache_hierarchy.l2_cache.ReadExReq.mshrHits::processor.cores.core.data         7055                       # number of ReadExReq MSHR hits (Count)
board.cache_hierarchy.l2_cache.ReadExReq.mshrHits::total         7055                       # number of ReadExReq MSHR hits (Count)
board.cache_hierarchy.l2_cache.ReadExReq.mshrMisses::processor.cores.core.data          169                       # number of ReadExReq MSHR misses (Count)
board.cache_hierarchy.l2_cache.ReadExReq.mshrMisses::total          169                       # number of ReadExReq MSHR misses (Count)
board.cache_hierarchy.l2_cache.ReadExReq.mshrMissLatency::processor.cores.core.data     13542111                       # number of ReadExReq MSHR miss ticks (Tick)
board.cache_hierarchy.l2_cache.ReadExReq.mshrMissLatency::total     13542111                       # number of ReadExReq MSHR miss ticks (Tick)
board.cache_hierarchy.l2_cache.ReadExReq.mshrMissRate::processor.cores.core.data     0.010959                       # mshr miss rate for ReadExReq accesses (Ratio)
board.cache_hierarchy.l2_cache.ReadExReq.mshrMissRate::total     0.010959                       # mshr miss rate for ReadExReq accesses (Ratio)
board.cache_hierarchy.l2_cache.ReadExReq.avgMshrMissLatency::processor.cores.core.data 80130.834320                       # average ReadExReq mshr miss latency ((Tick/Count))
board.cache_hierarchy.l2_cache.ReadExReq.avgMshrMissLatency::total 80130.834320                       # average ReadExReq mshr miss latency ((Tick/Count))
board.cache_hierarchy.l2_cache.ReadSharedReq.hits::cache_hierarchy.l1_dcaches.prefetcher          751                       # number of ReadSharedReq hits (Count)
board.cache_hierarchy.l2_cache.ReadSharedReq.hits::processor.cores.core.inst          319                       # number of ReadSharedReq hits (Count)
board.cache_hierarchy.l2_cache.ReadSharedReq.hits::processor.cores.core.data        55992                       # number of ReadSharedReq hits (Count)
board.cache_hierarchy.l2_cache.ReadSharedReq.hits::total        57062                       # number of ReadSharedReq hits (Count)
board.cache_hierarchy.l2_cache.ReadSharedReq.misses::cache_hierarchy.l1_dcaches.prefetcher          806                       # number of ReadSharedReq misses (Count)
board.cache_hierarchy.l2_cache.ReadSharedReq.misses::processor.cores.core.inst          201                       # number of ReadSharedReq misses (Count)
board.cache_hierarchy.l2_cache.ReadSharedReq.misses::processor.cores.core.data          174                       # number of ReadSharedReq misses (Count)
board.cache_hierarchy.l2_cache.ReadSharedReq.misses::total         1181                       # number of ReadSharedReq misses (Count)
board.cache_hierarchy.l2_cache.ReadSharedReq.missLatency::cache_hierarchy.l1_dcaches.prefetcher     26933178                       # number of ReadSharedReq miss ticks (Tick)
board.cache_hierarchy.l2_cache.ReadSharedReq.missLatency::processor.cores.core.inst     14383269                       # number of ReadSharedReq miss ticks (Tick)
board.cache_hierarchy.l2_cache.ReadSharedReq.missLatency::processor.cores.core.data     10493829                       # number of ReadSharedReq miss ticks (Tick)
board.cache_hierarchy.l2_cache.ReadSharedReq.missLatency::total     51810276                       # number of ReadSharedReq miss ticks (Tick)
board.cache_hierarchy.l2_cache.ReadSharedReq.accesses::cache_hierarchy.l1_dcaches.prefetcher         1557                       # number of ReadSharedReq accesses(hits+misses) (Count)
board.cache_hierarchy.l2_cache.ReadSharedReq.accesses::processor.cores.core.inst          520                       # number of ReadSharedReq accesses(hits+misses) (Count)
board.cache_hierarchy.l2_cache.ReadSharedReq.accesses::processor.cores.core.data        56166                       # number of ReadSharedReq accesses(hits+misses) (Count)
board.cache_hierarchy.l2_cache.ReadSharedReq.accesses::total        58243                       # number of ReadSharedReq accesses(hits+misses) (Count)
board.cache_hierarchy.l2_cache.ReadSharedReq.missRate::cache_hierarchy.l1_dcaches.prefetcher     0.517662                       # miss rate for ReadSharedReq accesses (Ratio)
board.cache_hierarchy.l2_cache.ReadSharedReq.missRate::processor.cores.core.inst     0.386538                       # miss rate for ReadSharedReq accesses (Ratio)
board.cache_hierarchy.l2_cache.ReadSharedReq.missRate::processor.cores.core.data     0.003098                       # miss rate for ReadSharedReq accesses (Ratio)
board.cache_hierarchy.l2_cache.ReadSharedReq.missRate::total     0.020277                       # miss rate for ReadSharedReq accesses (Ratio)
board.cache_hierarchy.l2_cache.ReadSharedReq.avgMissLatency::cache_hierarchy.l1_dcaches.prefetcher 33415.853598                       # average ReadSharedReq miss latency ((Tick/Count))
board.cache_hierarchy.l2_cache.ReadSharedReq.avgMissLatency::processor.cores.core.inst 71558.552239                       # average ReadSharedReq miss latency ((Tick/Count))
board.cache_hierarchy.l2_cache.ReadSharedReq.avgMissLatency::processor.cores.core.data 60309.362069                       # average ReadSharedReq miss latency ((Tick/Count))
board.cache_hierarchy.l2_cache.ReadSharedReq.avgMissLatency::total 43869.835732                       # average ReadSharedReq miss latency ((Tick/Count))
board.cache_hierarchy.l2_cache.ReadSharedReq.mshrHits::cache_hierarchy.l1_dcaches.prefetcher          773                       # number of ReadSharedReq MSHR hits (Count)
board.cache_hierarchy.l2_cache.ReadSharedReq.mshrHits::processor.cores.core.inst           59                       # number of ReadSharedReq MSHR hits (Count)
board.cache_hierarchy.l2_cache.ReadSharedReq.mshrHits::processor.cores.core.data           69                       # number of ReadSharedReq MSHR hits (Count)
board.cache_hierarchy.l2_cache.ReadSharedReq.mshrHits::total          901                       # number of ReadSharedReq MSHR hits (Count)
board.cache_hierarchy.l2_cache.ReadSharedReq.mshrMisses::cache_hierarchy.l1_dcaches.prefetcher           33                       # number of ReadSharedReq MSHR misses (Count)
board.cache_hierarchy.l2_cache.ReadSharedReq.mshrMisses::processor.cores.core.inst          142                       # number of ReadSharedReq MSHR misses (Count)
board.cache_hierarchy.l2_cache.ReadSharedReq.mshrMisses::processor.cores.core.data          105                       # number of ReadSharedReq MSHR misses (Count)
board.cache_hierarchy.l2_cache.ReadSharedReq.mshrMisses::total          280                       # number of ReadSharedReq MSHR misses (Count)
board.cache_hierarchy.l2_cache.ReadSharedReq.mshrMissLatency::cache_hierarchy.l1_dcaches.prefetcher      2309340                       # number of ReadSharedReq MSHR miss ticks (Tick)
board.cache_hierarchy.l2_cache.ReadSharedReq.mshrMissLatency::processor.cores.core.inst     10748907                       # number of ReadSharedReq MSHR miss ticks (Tick)
board.cache_hierarchy.l2_cache.ReadSharedReq.mshrMissLatency::processor.cores.core.data      7480845                       # number of ReadSharedReq MSHR miss ticks (Tick)
board.cache_hierarchy.l2_cache.ReadSharedReq.mshrMissLatency::total     20539092                       # number of ReadSharedReq MSHR miss ticks (Tick)
board.cache_hierarchy.l2_cache.ReadSharedReq.mshrMissRate::cache_hierarchy.l1_dcaches.prefetcher     0.021195                       # mshr miss rate for ReadSharedReq accesses (Ratio)
board.cache_hierarchy.l2_cache.ReadSharedReq.mshrMissRate::processor.cores.core.inst     0.273077                       # mshr miss rate for ReadSharedReq accesses (Ratio)
board.cache_hierarchy.l2_cache.ReadSharedReq.mshrMissRate::processor.cores.core.data     0.001869                       # mshr miss rate for ReadSharedReq accesses (Ratio)
board.cache_hierarchy.l2_cache.ReadSharedReq.mshrMissRate::total     0.004807                       # mshr miss rate for ReadSharedReq accesses (Ratio)
board.cache_hierarchy.l2_cache.ReadSharedReq.avgMshrMissLatency::cache_hierarchy.l1_dcaches.prefetcher        69980                       # average ReadSharedReq mshr miss latency ((Tick/Count))
board.cache_hierarchy.l2_cache.ReadSharedReq.avgMshrMissLatency::processor.cores.core.inst 75696.528169                       # average ReadSharedReq mshr miss latency ((Tick/Count))
board.cache_hierarchy.l2_cache.ReadSharedReq.avgMshrMissLatency::processor.cores.core.data 71246.142857                       # average ReadSharedReq mshr miss latency ((Tick/Count))
board.cache_hierarchy.l2_cache.ReadSharedReq.avgMshrMissLatency::total 73353.900000                       # average ReadSharedReq mshr miss latency ((Tick/Count))
board.cache_hierarchy.l2_cache.WritebackDirty.hits::writebacks        71558                       # number of WritebackDirty hits (Count)
board.cache_hierarchy.l2_cache.WritebackDirty.hits::total        71558                       # number of WritebackDirty hits (Count)
board.cache_hierarchy.l2_cache.WritebackDirty.accesses::writebacks        71558                       # number of WritebackDirty accesses(hits+misses) (Count)
board.cache_hierarchy.l2_cache.WritebackDirty.accesses::total        71558                       # number of WritebackDirty accesses(hits+misses) (Count)
board.cache_hierarchy.l2_cache.power_state.pwrStateResidencyTicks::UNDEFINED    857194947                       # Cumulative time (in ticks) in various power states (Tick)
board.cache_hierarchy.l2_cache.prefetcher.demandMshrMisses          449                       # demands not covered by prefetchs (Count)
board.cache_hierarchy.l2_cache.prefetcher.pfIssued        18317                       # number of hwpf issued (Count)
board.cache_hierarchy.l2_cache.prefetcher.pfUseful         1006                       # number of useful prefetch (Count)
board.cache_hierarchy.l2_cache.prefetcher.pfUsefulButMiss            0                       # number of hit on prefetch but cache block is not in an usable state (Count)
board.cache_hierarchy.l2_cache.prefetcher.accuracy     0.054922                       # accuracy of the prefetcher (Count)
board.cache_hierarchy.l2_cache.prefetcher.coverage     0.691409                       # coverage brought by this prefetcher (Count)
board.cache_hierarchy.l2_cache.prefetcher.pfHitInCache          747                       # number of prefetches hitting in cache (Count)
board.cache_hierarchy.l2_cache.prefetcher.pfHitInMSHR         8230                       # number of prefetches hitting in a MSHR (Count)
board.cache_hierarchy.l2_cache.prefetcher.pfHitInWB            0                       # number of prefetches hit in the Write Buffer (Count)
board.cache_hierarchy.l2_cache.prefetcher.pfLate         8977                       # number of late prefetches (hitting in cache, MSHR or WB) (Count)
board.cache_hierarchy.l2_cache.prefetcher.pfIdentified        18381                       # number of prefetch candidates identified (Count)
board.cache_hierarchy.l2_cache.prefetcher.pfBufferHit           33                       # number of redundant prefetches already in prefetch queue (Count)
board.cache_hierarchy.l2_cache.prefetcher.pfInCache            0                       # number of redundant prefetches already in cache/mshr dropped (Count)
board.cache_hierarchy.l2_cache.prefetcher.pfRemovedDemand           16                       # number of prefetches dropped due to a demand for the same address (Count)
board.cache_hierarchy.l2_cache.prefetcher.pfRemovedFull            0                       # number of prefetches dropped due to prefetch queue size (Count)
board.cache_hierarchy.l2_cache.prefetcher.pfSpanPage          441                       # number of prefetches that crossed the page (Count)
board.cache_hierarchy.l2_cache.prefetcher.pfUsefulSpanPage           60                       # number of prefetches that is useful and crossed the page (Count)
board.cache_hierarchy.l2_cache.prefetcher.power_state.pwrStateResidencyTicks::UNDEFINED    857194947                       # Cumulative time (in ticks) in various power states (Tick)
board.cache_hierarchy.l2_cache.tags.tagsInUse  8833.975079                       # Average ticks per tags in use ((Tick/Count))
board.cache_hierarchy.l2_cache.tags.totalRefs       147748                       # Total number of references to valid blocks. (Count)
board.cache_hierarchy.l2_cache.tags.sampledRefs         9789                       # Sample count of references to valid blocks. (Count)
[...]
board.processor.cores.core.fetch.nisnDist::3        25865      1.02%     81.96% # Number of instructions fetched each cycle (Total) (Count)
board.processor.cores.core.fetch.nisnDist::4       106006      4.16%     86.12% # Number of instructions fetched each cycle (Total) (Count)
board.processor.cores.core.fetch.nisnDist::5        53779      2.11%     88.23% # Number of instructions fetched each cycle (Total) (Count)
board.processor.cores.core.fetch.nisnDist::6        61743      2.42%     90.66% # Number of instructions fetched each cycle (Total) (Count)
board.processor.cores.core.fetch.nisnDist::7        28967      1.14%     91.79% # Number of instructions fetched each cycle (Total) (Count)
board.processor.cores.core.fetch.nisnDist::8       208976      8.21%    100.00% # Number of instructions fetched each cycle (Total) (Count)
board.processor.cores.core.fetch.nisnDist::overflows            0      0.00%    100.00% # Number of instructions fetched each cycle (Total) (Count)
board.processor.cores.core.fetch.nisnDist::min_value            0                       # Number of instructions fetched each cycle (Total) (Count)
board.processor.cores.core.fetch.nisnDist::max_value            8                       # Number of instructions fetched each cycle (Total) (Count)
board.processor.cores.core.fetch.nisnDist::total      2546915                       # Number of instructions fetched each cycle (Total) (Count)
board.processor.cores.core.fetchStats0.numInsts      3111291                       # Number of instructions fetched (thread level) (Count)
board.processor.cores.core.fetchStats0.numOps            0                       # Number of ops (including micro ops) fetched (thread level) (Count)
board.processor.cores.core.fetchStats0.fetchRate     1.208663                       # Number of inst fetches per cycle ((Count/Cycle))
board.processor.cores.core.fetchStats0.numBranches       368764                       # Number of branches fetched (Count)
board.processor.cores.core.fetchStats0.branchRate     0.143256                       # Number of branch fetches per cycle (Ratio)
board.processor.cores.core.fetchStats0.icacheStallCycles       390666                       # ICache total stall cycles (Cycle)
board.processor.cores.core.fetchStats0.numFetchSuspends            0                       # Number of times Execute suspended instruction fetching (Count)
board.processor.cores.core.iew.idleCycles            0                       # Number of cycles IEW is idle (Cycle)
board.processor.cores.core.iew.squashCycles        26477                       # Number of cycles IEW is squashing (Cycle)
board.processor.cores.core.iew.blockCycles       219555                       # Number of cycles IEW is blocking (Cycle)
board.processor.cores.core.iew.unblockCycles       704411                       # Number of cycles IEW is unblocking (Cycle)
board.processor.cores.core.iew.dispatchedInsts      2683381                       # Number of instructions dispatched to IQ (Count)
board.processor.cores.core.iew.dispSquashedInsts          319                       # Number of squashed instructions skipped by dispatch (Count)
board.processor.cores.core.iew.dispLoadInsts       883974                       # Number of dispatched load instructions (Count)
board.processor.cores.core.iew.dispStoreInsts       438347                       # Number of dispatched store instructions (Count)
board.processor.cores.core.iew.dispNonSpecInsts        25213                       # Number of dispatched non-speculative instructions (Count)
board.processor.cores.core.iew.iqFullEvents         8492                       # Number of times the IQ has become full, causing a stall (Count)
board.processor.cores.core.iew.lsqFullEvents       695820                       # Number of times the LSQ has become full, causing a stall (Count)
board.processor.cores.core.iew.memOrderViolationEvents        24361                       # Number of memory order violations (Count)
board.processor.cores.core.iew.predictedTakenIncorrect          987                       # Number of branches that were predicted taken incorrectly (Count)
board.processor.cores.core.iew.predictedNotTakenIncorrect         1076                       # Number of branches that were predicted not taken incorrectly (Count)
board.processor.cores.core.iew.branchMispredicts         2063                       # Number of branch mispredicts detected at execute (Count)
board.processor.cores.core.iew.instsToCommit      2461100                       # Cumulative count of insts sent to commit (Count)
board.processor.cores.core.iew.writebackCount      2452106                       # Cumulative count of insts written-back (Count)
board.processor.cores.core.iew.producerInst      1667996                       # Number of instructions producing a value (Count)
board.processor.cores.core.iew.consumerInst      2011950                       # Number of instructions consuming a value (Count)
board.processor.cores.core.iew.wbRate        0.952585                       # Insts written-back per cycle ((Count/Cycle))
board.processor.cores.core.iew.wbFanout      0.829044                       # Average fanout of values written-back ((Count/Count))
board.processor.cores.core.lsq0.forwLoads       191379                       # Number of loads that had data forwarded from stores (Count)
board.processor.cores.core.lsq0.squashedLoads       206822                       # Number of loads squashed (Count)
board.processor.cores.core.lsq0.ignoredResponses            6                       # Number of memory responses ignored because the instruction is squashed (Count)
board.processor.cores.core.lsq0.memOrderViolation        24361                       # Number of memory ordering violations (Count)
board.processor.cores.core.lsq0.squashedStores       136644                       # Number of stores squashed (Count)
board.processor.cores.core.lsq0.rescheduledLoads            1                       # Number of loads that were rescheduled (Count)
board.processor.cores.core.lsq0.blockedByCache         7264                       # Number of times an access to memory failed due to the cache being blocked (Count)
board.processor.cores.core.lsq0.loadToUse::samples       677152                       # Distribution of cycle latency between the first time a load is issued and its completion (Unspecified)
board.processor.cores.core.lsq0.loadToUse::mean     6.964826                       # Distribution of cycle latency between the first time a load is issued and its completion (Unspecified)
board.processor.cores.core.lsq0.loadToUse::stdev    16.807957                       # Distribution of cycle latency between the first time a load is issued and its completion (Unspecified)
board.processor.cores.core.lsq0.loadToUse::0-9       601919     88.89%     88.89% # Distribution of cycle latency between the first time a load is issued and its completion (Unspecified)
board.processor.cores.core.lsq0.loadToUse::10-19         1849      0.27%     89.16% # Distribution of cycle latency between the first time a load is issued and its completion (Unspecified)
board.processor.cores.core.lsq0.loadToUse::20-29        63335      9.35%     98.52% # Distribution of cycle latency between the first time a load is issued and its completion (Unspecified)
board.processor.cores.core.lsq0.loadToUse::30-39          897      0.13%     98.65% # Distribution of cycle latency between the first time a load is issued and its completion (Unspecified)
board.processor.cores.core.lsq0.loadToUse::40-49          416      0.06%     98.71% # Distribution of cycle latency between the first time a load is issued and its completion (Unspecified)
board.processor.cores.core.lsq0.loadToUse::50-59          369      0.05%     98.76% # Distribution of cycle latency between the first time a load is issued and its completion (Unspecified)
board.processor.cores.core.lsq0.loadToUse::60-69          152      0.02%     98.79% # Distribution of cycle latency between the first time a load is issued and its completion (Unspecified)
board.processor.cores.core.lsq0.loadToUse::70-79          250      0.04%     98.82% # Distribution of cycle latency between the first time a load is issued and its completion (Unspecified)
board.processor.cores.core.lsq0.loadToUse::80-89          355      0.05%     98.88% # Distribution of cycle latency between the first time a load is issued and its completion (Unspecified)
board.processor.cores.core.lsq0.loadToUse::90-99          964      0.14%     99.02% # Distribution of cycle latency between the first time a load is issued and its completion (Unspecified)
board.processor.cores.core.lsq0.loadToUse::100-109         1396      0.21%     99.22% # Distribution of cycle latency between the first time a load is issued and its completion (Unspecified)
board.processor.cores.core.lsq0.loadToUse::110-119         1632      0.24%     99.47% # Distribution of cycle latency between the first time a load is issued and its completion (Unspecified)
board.processor.cores.core.lsq0.loadToUse::120-129         1470      0.22%     99.68% # Distribution of cycle latency between the first time a load is issued and its completion (Unspecified)
board.processor.cores.core.lsq0.loadToUse::130-139          712      0.11%     99.79% # Distribution of cycle latency between the first time a load is issued and its completion (Unspecified)
board.processor.cores.core.lsq0.loadToUse::140-149          342      0.05%     99.84% # Distribution of cycle latency between the first time a load is issued and its completion (Unspecified)
board.processor.cores.core.lsq0.loadToUse::150-159          202      0.03%     99.87% # Distribution of cycle latency between the first time a load is issued and its completion (Unspecified)
board.processor.cores.core.lsq0.loadToUse::160-169          163      0.02%     99.89% # Distribution of cycle latency between the first time a load is issued and its completion (Unspecified)
board.processor.cores.core.lsq0.loadToUse::170-179          203      0.03%     99.92% # Distribution of cycle latency between the first time a load is issued and its completion (Unspecified)
board.processor.cores.core.lsq0.loadToUse::180-189          136      0.02%     99.94% # Distribution of cycle latency between the first time a load is issued and its completion (Unspecified)
board.processor.cores.core.lsq0.loadToUse::190-199           85      0.01%     99.95% # Distribution of cycle latency between the first time a load is issued and its completion (Unspecified)
board.processor.cores.core.lsq0.loadToUse::200-209           28      0.00%     99.96% # Distribution of cycle latency between the first time a load is issued and its completion (Unspecified)
board.processor.cores.core.lsq0.loadToUse::210-219           54      0.01%     99.97% # Distribution of cycle latency between the first time a load is issued and its completion (Unspecified)
board.processor.cores.core.lsq0.loadToUse::220-229           70      0.01%     99.98% # Distribution of cycle latency between the first time a load is issued and its completion (Unspecified)
board.processor.cores.core.lsq0.loadToUse::230-239           46      0.01%     99.98% # Distribution of cycle latency between the first time a load is issued and its completion (Unspecified)
board.processor.cores.core.lsq0.loadToUse::240-249           21      0.00%     99.99% # Distribution of cycle latency between the first time a load is issued and its completion (Unspecified)
board.processor.cores.core.lsq0.loadToUse::250-259            9      0.00%     99.99% # Distribution of cycle latency between the first time a load is issued and its completion (Unspecified)
board.processor.cores.core.lsq0.loadToUse::260-269            7      0.00%     99.99% # Distribution of cycle latency between the first time a load is issued and its completion (Unspecified)
board.processor.cores.core.lsq0.loadToUse::270-279           10      0.00%     99.99% # Distribution of cycle latency between the first time a load is issued and its completion (Unspecified)
board.processor.cores.core.lsq0.loadToUse::280-289            4      0.00%     99.99% # Distribution of cycle latency between the first time a load is issued and its completion (Unspecified)
board.processor.cores.core.lsq0.loadToUse::290-299            5      0.00%     99.99% # Distribution of cycle latency between the first time a load is issued and its completion (Unspecified)
board.processor.cores.core.lsq0.loadToUse::overflows           51      0.01%    100.00% # Distribution of cycle latency between the first time a load is issued and its completion (Unspecified)
board.processor.cores.core.lsq0.loadToUse::min_value            2                       # Distribution of cycle latency between the first time a load is issued and its completion (Unspecified)
board.processor.cores.core.lsq0.loadToUse::max_value         1129                       # Distribution of cycle latency between the first time a load is issued and its completion (Unspecified)
board.processor.cores.core.lsq0.loadToUse::total       677152                       # Distribution of cycle latency between the first time a load is issued and its completion (Unspecified)
board.processor.cores.core.mmu.dtb.readHits            0                       # read hits (Count)
board.processor.cores.core.mmu.dtb.readMisses            0                       # read misses (Count)
board.processor.cores.core.mmu.dtb.readAccesses            0                       # read accesses (Count)
board.processor.cores.core.mmu.dtb.writeHits            0                       # write hits (Count)
board.processor.cores.core.mmu.dtb.writeMisses            0                       # write misses (Count)
board.processor.cores.core.mmu.dtb.writeAccesses            0                       # write accesses (Count)
board.processor.cores.core.mmu.dtb.hits             0                       # Total TLB (read and write) hits (Count)
board.processor.cores.core.mmu.dtb.misses            0                       # Total TLB (read and write) misses (Count)
board.processor.cores.core.mmu.dtb.accesses            0                       # Total TLB (read and write) accesses (Count)
board.processor.cores.core.mmu.dtb.walker.num_4kb_walks            0                       # Completed page walks with 4KB pages (Count)
board.processor.cores.core.mmu.dtb.walker.num_2mb_walks            0                       # Completed page walks with 2MB pages (Count)
board.processor.cores.core.mmu.dtb.walker.power_state.pwrStateResidencyTicks::UNDEFINED    857194947                       # Cumulative time (in ticks) in various power states (Tick)
board.processor.cores.core.mmu.itb.readHits            0                       # read hits (Count)
board.processor.cores.core.mmu.itb.readMisses            0                       # read misses (Count)
board.processor.cores.core.mmu.itb.readAccesses            0                       # read accesses (Count)
board.processor.cores.core.mmu.itb.writeHits            0                       # write hits (Count)
board.processor.cores.core.mmu.itb.writeMisses            0                       # write misses (Count)
board.processor.cores.core.mmu.itb.writeAccesses            0                       # write accesses (Count)
board.processor.cores.core.mmu.itb.hits             0                       # Total TLB (read and write) hits (Count)
board.processor.cores.core.mmu.itb.misses            0                       # Total TLB (read and write) misses (Count)
board.processor.cores.core.mmu.itb.accesses            0                       # Total TLB (read and write) accesses (Count)
board.processor.cores.core.mmu.itb.walker.num_4kb_walks            0                       # Completed page walks with 4KB pages (Count)
board.processor.cores.core.mmu.itb.walker.num_2mb_walks            0                       # Completed page walks with 2MB pages (Count)
board.processor.cores.core.mmu.itb.walker.power_state.pwrStateResidencyTicks::UNDEFINED    857194947                       # Cumulative time (in ticks) in various power states (Tick)
board.processor.cores.core.power_state.pwrStateResidencyTicks::ON    857194947                       # Cumulative time (in ticks) in various power states (Tick)
board.processor.cores.core.rename.squashCycles        26477                       # Number of cycles rename is squashing (Cycle)
board.processor.cores.core.rename.idleCycles       268031                       # Number of cycles rename is idle (Cycle)
board.processor.cores.core.rename.blockCycles       959267                       # Number of cycles rename is blocking (Cycle)
board.processor.cores.core.rename.serializeStallCycles       340448                       # count of cycles rename stalled for serializing inst (Cycle)
board.processor.cores.core.rename.runCycles       355633                       # Number of cycles rename is running (Cycle)
board.processor.cores.core.rename.unblockCycles       597059                       # Number of cycles rename is unblocking (Cycle)
board.processor.cores.core.rename.renamedInsts      2731089                       # Number of instructions processed by rename (Count)
board.processor.cores.core.rename.ROBFullEvents           22                       # Number of times rename has blocked due to ROB full (Count)
board.processor.cores.core.rename.IQFullEvents       186123                       # Number of times rename has blocked due to IQ full (Count)
board.processor.cores.core.rename.LQFullEvents       477801                       # Number of times rename has blocked due to LQ full (Count)
board.processor.cores.core.rename.SQFullEvents        20966                       # Number of times rename has blocked due to SQ full (Count)
board.processor.cores.core.rename.renamedOperands      2036772                       # Number of destination operands rename has renamed (Count)
board.processor.cores.core.rename.lookups      3315086                       # Number of register rename lookups that rename has made (Count)
board.processor.cores.core.rename.intLookups      3279588                       # Number of integer rename lookups (Count)
board.processor.cores.core.rename.fpLookups           13                       # Number of floating rename lookups (Count)
board.processor.cores.core.rename.committedMaps      1524914                       # Number of HB maps that are committed (Count)
board.processor.cores.core.rename.undoneMaps       511858                       # Number of HB maps that are undone due to squashing (Count)
board.processor.cores.core.rename.serializing        16468                       # count of serializing insts renamed (Count)
board.processor.cores.core.rename.tempSerializing        16465                       # count of temporary serializing insts renamed (Count)
board.processor.cores.core.rename.skidInsts       727027                       # count of insts added to the skid buffer (Count)
board.processor.cores.core.rob.reads          4839731                       # The number of ROB reads (Count)
board.processor.cores.core.rob.writes         5473518                       # The number of ROB writes (Count)
board.processor.cores.core.thread_0.numInsts      2004201                       # Number of Instructions committed (Count)
board.processor.cores.core.thread_0.numOps      2020634                       # Number of Ops committed (Count)
board.processor.cores.core.thread_0.numMemRefs            0                       # Number of Memory References (Count)
board.processor.cores.core.workload.numSyscalls           18                       # Number of system calls (Count)
board.workload.inst.arm                             0                       # number of arm instructions executed (Count)
board.workload.inst.quiesce                         0                       # number of quiesce instructions executed (Count)

---------- End Simulation Statistics   ----------
