
---------- Begin Simulation Statistics ----------
simSeconds                                   0.274809                       # Number of seconds simulated (Second)
simTicks                                 274809066516                       # Number of ticks simulated (Tick)
finalTick                                274809066516                       # Number of ticks from beginning of simulation (restored from checkpoints and never reset) (Tick)
simFreq                                  1000000000000                       # The number of ticks per simulated second ((Tick/Second))
hostSeconds                                    570.35                       # Real time elapsed on the host (Second)
hostTickRate                                481826391                       # The number of ticks simulated per host second (ticks/s) ((Tick/Second))
hostMemory                                    8567192                       # Number of bytes of host memory used (Byte)
simInsts                                    120190277                       # Number of instructions simulated (Count)
simOps                                      121238904                       # Number of ops (including micro ops) simulated (Count)
hostInstRate                                   210731                       # Simulator instruction rate (inst/s) ((Count/Second))
hostOpRate                                     212570                       # Simulator op (including micro ops) rate (op/s) ((Count/Second))
board.cache_hierarchy.l1_dcaches.demandHits::processor.cores.core.data     52723064                       # number of demand (read+write) hits (Count)
board.cache_hierarchy.l1_dcaches.demandHits::total     52723064                       # number of demand (read+write) hits (Count)
board.cache_hierarchy.l1_dcaches.overallHits::processor.cores.core.data     52723064                       # number of overall hits (Count)
board.cache_hierarchy.l1_dcaches.overallHits::total     52723064                       # number of overall hits (Count)
board.cache_hierarchy.l1_dcaches.demandMisses::processor.cores.core.data      5771685                       # number of demand (read+write) misses (Count)
board.cache_hierarchy.l1_dcaches.demandMisses::total      5771685                       # number of demand (read+write) misses (Count)
board.cache_hierarchy.l1_dcaches.overallMisses::processor.cores.core.data      5771685                       # number of overall misses (Count)
board.cache_hierarchy.l1_dcaches.overallMisses::total      5771685                       # number of overall misses (Count)
board.cache_hierarchy.l1_dcaches.demandMissLatency::processor.cores.core.data 508460295758                       # number of demand (read+write) miss ticks (Tick)
board.cache_hierarchy.l1_dcaches.demandMissLatency::total 508460295758                       # number of demand (read+write) miss ticks (Tick)
board.cache_hierarchy.l1_dcaches.overallMissLatency::processor.cores.core.data 508460295758                       # number of overall miss ticks (Tick)
board.cache_hierarchy.l1_dcaches.overallMissLatency::total 508460295758                       # number of overall miss ticks (Tick)
board.cache_hierarchy.l1_dcaches.demandAccesses::processor.cores.core.data     58494749                       # number of demand (read+write) accesses (Count)
board.cache_hierarchy.l1_dcaches.demandAccesses::total     58494749                       # number of demand (read+write) accesses (Count)
board.cache_hierarchy.l1_dcaches.overallAccesses::processor.cores.core.data     58494749                       # number of overall (read+write) accesses (Count)
board.cache_hierarchy.l1_dcaches.overallAccesses::total     58494749                       # number of overall (read+write) accesses (Count)
board.cache_hierarchy.l1_dcaches.demandMissRate::processor.cores.core.data     0.098670                       # miss rate for demand accesses (Ratio)
board.cache_hierarchy.l1_dcaches.demandMissRate::total     0.098670                       # miss rate for demand accesses (Ratio)
board.cache_hierarchy.l1_dcaches.overallMissRate::processor.cores.core.data     0.098670                       # miss rate for overall accesses (Ratio)
board.cache_hierarchy.l1_dcaches.overallMissRate::total     0.098670                       # miss rate for overall accesses (Ratio)
board.cache_hierarchy.l1_dcaches.demandAvgMissLatency::processor.cores.core.data 88095.642045                       # average overall miss latency in ticks ((Tick/Count))
board.cache_hierarchy.l1_dcaches.demandAvgMissLatency::total 88095.642045                       # average overall miss latency in ticks ((Tick/Count))
board.cache_hierarchy.l1_dcaches.overallAvgMissLatency::processor.cores.core.data 88095.642045                       # average overall miss latency ((Tick/Count))
board.cache_hierarchy.l1_dcaches.overallAvgMissLatency::total 88095.642045                       # average overall miss latency ((Tick/Count))
board.cache_hierarchy.l1_dcaches.blockedCycles::no_mshrs     67570793                       # number of cycles access was blocked (Cycle)
board.cache_hierarchy.l1_dcaches.blockedCycles::no_targets            0                       # number of cycles access was blocked (Cycle)
board.cache_hierarchy.l1_dcaches.blockedCauses::no_mshrs       962637                       # number of times access was blocked (Count)
board.cache_hierarchy.l1_dcaches.blockedCauses::no_targets            0                       # number of times access was blocked (Count)
board.cache_hierarchy.l1_dcaches.avgBlocked::no_mshrs    70.193430                       # average number of cycles each access was blocked ((Cycle/Count))
board.cache_hierarchy.l1_dcaches.avgBlocked::no_targets          nan                       # average number of cycles each access was blocked ((Cycle/Count))
board.cache_hierarchy.l1_dcaches.writebacks::writebacks      1531292                       # number of writebacks (Count)
board.cache_hierarchy.l1_dcaches.writebacks::total      1531292                       # number of writebacks (Count)
board.cache_hierarchy.l1_dcaches.demandMshrHits::processor.cores.core.data       599880                       # number of demand (read+write) MSHR hits (Count)
board.cache_hierarchy.l1_dcaches.demandMshrHits::total       599880                       # number of demand (read+write) MSHR hits (Count)
board.cache_hierarchy.l1_dcaches.overallMshrHits::processor.cores.core.data       599880                       # number of overall MSHR hits (Count)
board.cache_hierarchy.l1_dcaches.overallMshrHits::total       599880                       # number of overall MSHR hits (Count)
board.cache_hierarchy.l1_dcaches.demandMshrMisses::processor.cores.core.data      5171805                       # number of demand (read+write) MSHR misses (Count)
board.cache_hierarchy.l1_dcaches.demandMshrMisses::total      5171805                       # number of demand (read+write) MSHR misses (Count)
board.cache_hierarchy.l1_dcaches.overallMshrMisses::cache_hierarchy.l1_dcaches.prefetcher        61230                       # number of overall MSHR misses (Count)
board.cache_hierarchy.l1_dcaches.overallMshrMisses::processor.cores.core.data      5171805                       # number of overall MSHR misses (Count)
board.cache_hierarchy.l1_dcaches.overallMshrMisses::total      5233035                       # number of overall MSHR misses (Count)
board.cache_hierarchy.l1_dcaches.demandMshrMissLatency::processor.cores.core.data 454288475510                       # number of demand (read+write) MSHR miss ticks (Tick)
board.cache_hierarchy.l1_dcaches.demandMshrMissLatency::total 454288475510                       # number of demand (read+write) MSHR miss ticks (Tick)
board.cache_hierarchy.l1_dcaches.overallMshrMissLatency::cache_hierarchy.l1_dcaches.prefetcher   3315365543                       # number of overall MSHR miss ticks (Tick)
board.cache_hierarchy.l1_dcaches.overallMshrMissLatency::processor.cores.core.data 454288475510                       # number of overall MSHR miss ticks (Tick)
board.cache_hierarchy.l1_dcaches.overallMshrMissLatency::total 457603841053                       # number of overall MSHR miss ticks (Tick)
board.cache_hierarchy.l1_dcaches.demandMshrMissRate::processor.cores.core.data     0.088415                       # mshr miss ratio for demand accesses (Ratio)
board.cache_hierarchy.l1_dcaches.demandMshrMissRate::total     0.088415                       # mshr miss ratio for demand accesses (Ratio)
board.cache_hierarchy.l1_dcaches.overallMshrMissRate::cache_hierarchy.l1_dcaches.prefetcher          inf                       # mshr miss ratio for overall accesses (Ratio)
board.cache_hierarchy.l1_dcaches.overallMshrMissRate::processor.cores.core.data     0.088415                       # mshr miss ratio for overall accesses (Ratio)
board.cache_hierarchy.l1_dcaches.overallMshrMissRate::total     0.089462                       # mshr miss ratio for overall accesses (Ratio)
board.cache_hierarchy.l1_dcaches.demandAvgMshrMissLatency::processor.cores.core.data 87839.443968                       # average overall mshr miss latency ((Tick/Count))
board.cache_hierarchy.l1_dcaches.demandAvgMshrMissLatency::total 87839.443968                       # average overall mshr miss latency ((Tick/Count))
board.cache_hierarchy.l1_dcaches.overallAvgMshrMissLatency::cache_hierarchy.l1_dcaches.prefetcher 54146.097387                       # average overall mshr miss latency ((Tick/Count))
board.cache_hierarchy.l1_dcaches.overallAvgMshrMissLatency::processor.cores.core.data 87839.443968                       # average overall mshr miss latency ((Tick/Count))
board.cache_hierarchy.l1_dcaches.overallAvgMshrMissLatency::total 87445.209339                       # average overall mshr miss latency ((Tick/Count))
board.cache_hierarchy.l1_dcaches.replacements      5232527                       # number of replacements (Count)
board.cache_hierarchy.l1_dcaches.HardPFReq.mshrMisses::cache_hierarchy.l1_dcaches.prefetcher        61230                       # number of HardPFReq MSHR misses (Count)
board.cache_hierarchy.l1_dcaches.HardPFReq.mshrMisses::total        61230                       # number of HardPFReq MSHR misses (Count)
board.cache_hierarchy.l1_dcaches.HardPFReq.mshrMissLatency::cache_hierarchy.l1_dcaches.prefetcher   3315365543                       # number of HardPFReq MSHR miss ticks (Tick)
board.cache_hierarchy.l1_dcaches.HardPFReq.mshrMissLatency::total   3315365543                       # number of HardPFReq MSHR miss ticks (Tick)
board.cache_hierarchy.l1_dcaches.HardPFReq.mshrMissRate::cache_hierarchy.l1_dcaches.prefetcher          inf                       # mshr miss rate for HardPFReq accesses (Ratio)
board.cache_hierarchy.l1_dcaches.HardPFReq.mshrMissRate::total          inf                       # mshr miss rate for HardPFReq accesses (Ratio)
board.cache_hierarchy.l1_dcaches.HardPFReq.avgMshrMissLatency::cache_hierarchy.l1_dcaches.prefetcher 54146.097387                       # average HardPFReq mshr miss latency ((Tick/Count))
board.cache_hierarchy.l1_dcaches.HardPFReq.avgMshrMissLatency::total 54146.097387                       # average HardPFReq mshr miss latency ((Tick/Count))
board.cache_hierarchy.l1_dcaches.LoadLockedReq.hits::processor.cores.core.data      1015103                       # number of LoadLockedReq hits (Count)
board.cache_hierarchy.l1_dcaches.LoadLockedReq.hits::total      1015103                       # number of LoadLockedReq hits (Count)
board.cache_hierarchy.l1_dcaches.LoadLockedReq.misses::processor.cores.core.data            5                       # number of LoadLockedReq misses (Count)
board.cache_hierarchy.l1_dcaches.LoadLockedReq.misses::total            5                       # number of LoadLockedReq misses (Count)
board.cache_hierarchy.l1_dcaches.LoadLockedReq.missLatency::processor.cores.core.data       427239                       # number of LoadLockedReq miss ticks (Tick)
board.cache_hierarchy.l1_dcaches.LoadLockedReq.missLatency::total       427239                       # number of LoadLockedReq miss ticks (Tick)
board.cache_hierarchy.l1_dcaches.LoadLockedReq.accesses::processor.cores.core.data      1015108                       # number of LoadLockedReq accesses(hits+misses) (Count)
board.cache_hierarchy.l1_dcaches.LoadLockedReq.accesses::total      1015108                       # number of LoadLockedReq accesses(hits+misses) (Count)
board.cache_hierarchy.l1_dcaches.LoadLockedReq.missRate::processor.cores.core.data     0.000005                       # miss rate for LoadLockedReq accesses (Ratio)
board.cache_hierarchy.l1_dcaches.LoadLockedReq.missRate::total     0.000005                       # miss rate for LoadLockedReq accesses (Ratio)
board.cache_hierarchy.l1_dcaches.LoadLockedReq.avgMissLatency::processor.cores.core.data 85447.800000                       # average LoadLockedReq miss latency ((Tick/Count))
board.cache_hierarchy.l1_dcaches.LoadLockedReq.avgMissLatency::total 85447.800000                       # average LoadLockedReq miss latency ((Tick/Count))
board.cache_hierarchy.l1_dcaches.LoadLockedReq.mshrHits::processor.cores.core.data            2                       # number of LoadLockedReq MSHR hits (Count)
board.cache_hierarchy.l1_dcaches.LoadLockedReq.mshrHits::total            2                       # number of LoadLockedReq MSHR hits (Count)
board.cache_hierarchy.l1_dcaches.LoadLockedReq.mshrMisses::processor.cores.core.data            3                       # number of LoadLockedReq MSHR misses (Count)
board.cache_hierarchy.l1_dcaches.LoadLockedReq.mshrMisses::total            3                       # number of LoadLockedReq MSHR misses (Count)
board.cache_hierarchy.l1_dcaches.LoadLockedReq.mshrMissLatency::processor.cores.core.data       247086                       # number of LoadLockedReq MSHR miss ticks (Tick)
board.cache_hierarchy.l1_dcaches.LoadLockedReq.mshrMissLatency::total       247086                       # number of LoadLockedReq MSHR miss ticks (Tick)
board.cache_hierarchy.l1_dcaches.LoadLockedReq.mshrMissRate::processor.cores.core.data     0.000003                       # mshr miss rate for LoadLockedReq accesses (Ratio)
board.cache_hierarchy.l1_dcaches.LoadLockedReq.mshrMissRate::total     0.000003                       # mshr miss rate for LoadLockedReq accesses (Ratio)
board.cache_hierarchy.l1_dcaches.LoadLockedReq.avgMshrMissLatency::processor.cores.core.data        82362                       # average LoadLockedReq mshr miss latency ((Tick/Count))
board.cache_hierarchy.l1_dcaches.LoadLockedReq.avgMshrMissLatency::total        82362                       # average LoadLockedReq mshr miss latency ((Tick/Count))
board.cache_hierarchy.l1_dcaches.ReadReq.hits::processor.cores.core.data     35948064                       # number of ReadReq hits (Count)
board.cache_hierarchy.l1_dcaches.ReadReq.hits::total     35948064                       # number of ReadReq hits (Count)
board.cache_hierarchy.l1_dcaches.ReadReq.misses::processor.cores.core.data      4714130                       # number of ReadReq misses (Count)
board.cache_hierarchy.l1_dcaches.ReadReq.misses::total      4714130                       # number of ReadReq misses (Count)
board.cache_hierarchy.l1_dcaches.ReadReq.missLatency::processor.cores.core.data 407254396608                       # number of ReadReq miss ticks (Tick)
board.cache_hierarchy.l1_dcaches.ReadReq.missLatency::total 407254396608                       # number of ReadReq miss ticks (Tick)
board.cache_hierarchy.l1_dcaches.ReadReq.accesses::processor.cores.core.data     40662194                       # number of ReadReq accesses(hits+misses) (Count)
board.cache_hierarchy.l1_dcaches.ReadReq.accesses::total     40662194                       # number of ReadReq accesses(hits+misses) (Count)
board.cache_hierarchy.l1_dcaches.ReadReq.missRate::processor.cores.core.data     0.115934                       # miss rate for ReadReq accesses (Ratio)
board.cache_hierarchy.l1_dcaches.ReadReq.missRate::total     0.115934                       # miss rate for ReadReq accesses (Ratio)
board.cache_hierarchy.l1_dcaches.ReadReq.avgMissLatency::processor.cores.core.data 86390.149743                       # average ReadReq miss latency ((Tick/Count))
board.cache_hierarchy.l1_dcaches.ReadReq.avgMissLatency::total 86390.149743                       # average ReadReq miss latency ((Tick/Count))
board.cache_hierarchy.l1_dcaches.ReadReq.mshrHits::processor.cores.core.data       528124                       # number of ReadReq MSHR hits (Count)
board.cache_hierarchy.l1_dcaches.ReadReq.mshrHits::total       528124                       # number of ReadReq MSHR hits (Count)
board.cache_hierarchy.l1_dcaches.ReadReq.mshrMisses::processor.cores.core.data      4186006                       # number of ReadReq MSHR misses (Count)
board.cache_hierarchy.l1_dcaches.ReadReq.mshrMisses::total      4186006                       # number of ReadReq MSHR misses (Count)
board.cache_hierarchy.l1_dcaches.ReadReq.mshrMissLatency::processor.cores.core.data 358030022589                       # number of ReadReq MSHR miss ticks (Tick)
board.cache_hierarchy.l1_dcaches.ReadReq.mshrMissLatency::total 358030022589                       # number of ReadReq MSHR miss ticks (Tick)
board.cache_hierarchy.l1_dcaches.ReadReq.mshrMissRate::processor.cores.core.data     0.102946                       # mshr miss rate for ReadReq accesses (Ratio)
board.cache_hierarchy.l1_dcaches.ReadReq.mshrMissRate::total     0.102946                       # mshr miss rate for ReadReq accesses (Ratio)
board.cache_hierarchy.l1_dcaches.ReadReq.avgMshrMissLatency::processor.cores.core.data 85530.222028                       # average ReadReq mshr miss latency ((Tick/Count))
board.cache_hierarchy.l1_dcaches.ReadReq.avgMshrMissLatency::total 85530.222028                       # average ReadReq mshr miss latency ((Tick/Count))
board.cache_hierarchy.l1_dcaches.StoreCondReq.hits::processor.cores.core.data       524299                       # number of StoreCondReq hits (Count)
board.cache_hierarchy.l1_dcaches.StoreCondReq.hits::total       524299                       # number of StoreCondReq hits (Count)
board.cache_hierarchy.l1_dcaches.StoreCondReq.accesses::processor.cores.core.data       524299                       # number of StoreCondReq accesses(hits+misses) (Count)
board.cache_hierarchy.l1_dcaches.StoreCondReq.accesses::total       524299                       # number of StoreCondReq accesses(hits+misses) (Count)
board.cache_hierarchy.l1_dcaches.SwapReq.hits::processor.cores.core.data       524312                       # number of SwapReq hits (Count)
board.cache_hierarchy.l1_dcaches.SwapReq.hits::total       524312                       # number of SwapReq hits (Count)
board.cache_hierarchy.l1_dcaches.SwapReq.misses::processor.cores.core.data            1                       # number of SwapReq misses (Count)
board.cache_hierarchy.l1_dcaches.SwapReq.misses::total            1                       # number of SwapReq misses (Count)
board.cache_hierarchy.l1_dcaches.SwapReq.missLatency::processor.cores.core.data        88245                       # number of SwapReq miss ticks (Tick)
board.cache_hierarchy.l1_dcaches.SwapReq.missLatency::total        88245                       # number of SwapReq miss ticks (Tick)
board.cache_hierarchy.l1_dcaches.SwapReq.accesses::processor.cores.core.data       524313                       # number of SwapReq accesses(hits+misses) (Count)
board.cache_hierarchy.l1_dcaches.SwapReq.accesses::total       524313                       # number of SwapReq accesses(hits+misses) (Count)
board.cache_hierarchy.l1_dcaches.SwapReq.missRate::processor.cores.core.data     0.000002                       # miss rate for SwapReq accesses (Ratio)
board.cache_hierarchy.l1_dcaches.SwapReq.missRate::total     0.000002                       # miss rate for SwapReq accesses (Ratio)
board.cache_hierarchy.l1_dcaches.SwapReq.avgMissLatency::processor.cores.core.data        88245                       # average SwapReq miss latency ((Tick/Count))
board.cache_hierarchy.l1_dcaches.SwapReq.avgMissLatency::total        88245                       # average SwapReq miss latency ((Tick/Count))
board.cache_hierarchy.l1_dcaches.SwapReq.mshrMisses::processor.cores.core.data            1                       # number of SwapReq MSHR misses (Count)
board.cache_hierarchy.l1_dcaches.SwapReq.mshrMisses::total            1                       # number of SwapReq MSHR misses (Count)
board.cache_hierarchy.l1_dcaches.SwapReq.mshrMissLatency::processor.cores.core.data        87579                       # number of SwapReq MSHR miss ticks (Tick)
board.cache_hierarchy.l1_dcaches.SwapReq.mshrMissLatency::total        87579                       # number of SwapReq MSHR miss ticks (Tick)
board.cache_hierarchy.l1_dcaches.SwapReq.mshrMissRate::processor.cores.core.data     0.000002                       # mshr miss rate for SwapReq accesses (Ratio)
board.cache_hierarchy.l1_dcaches.SwapReq.mshrMissRate::total     0.000002                       # mshr miss rate for SwapReq accesses (Ratio)
board.cache_hierarchy.l1_dcaches.SwapReq.avgMshrMissLatency::processor.cores.core.data        87579                       # average SwapReq mshr miss latency ((Tick/Count))
board.cache_hierarchy.l1_dcaches.SwapReq.avgMshrMissLatency::total        87579                       # average SwapReq mshr miss latency ((Tick/Count))
board.cache_hierarchy.l1_dcaches.WriteReq.hits::processor.cores.core.data     16775000                       # number of WriteReq hits (Count)
board.cache_hierarchy.l1_dcaches.WriteReq.hits::total     16775000                       # number of WriteReq hits (Count)
board.cache_hierarchy.l1_dcaches.WriteReq.misses::processor.cores.core.data      1057555                       # number of WriteReq misses (Count)
board.cache_hierarchy.l1_dcaches.WriteReq.misses::total      1057555                       # number of WriteReq misses (Count)
board.cache_hierarchy.l1_dcaches.WriteReq.missLatency::processor.cores.core.data 101205899150                       # number of WriteReq miss ticks (Tick)
board.cache_hierarchy.l1_dcaches.WriteReq.missLatency::total 101205899150                       # number of WriteReq miss ticks (Tick)
board.cache_hierarchy.l1_dcaches.WriteReq.accesses::processor.cores.core.data     17832555                       # number of WriteReq accesses(hits+misses) (Count)
board.cache_hierarchy.l1_dcaches.WriteReq.accesses::total     17832555                       # number of WriteReq accesses(hits+misses) (Count)
board.cache_hierarchy.l1_dcaches.WriteReq.missRate::processor.cores.core.data     0.059305                       # miss rate for WriteReq accesses (Ratio)
board.cache_hierarchy.l1_dcaches.WriteReq.missRate::total     0.059305                       # miss rate for WriteReq accesses (Ratio)
board.cache_hierarchy.l1_dcaches.WriteReq.avgMissLatency::processor.cores.core.data 95698.000719                       # average WriteReq miss latency ((Tick/Count))
board.cache_hierarchy.l1_dcaches.WriteReq.avgMissLatency::total 95698.000719                       # average WriteReq miss latency ((Tick/Count))
board.cache_hierarchy.l1_dcaches.WriteReq.mshrHits::processor.cores.core.data        71756                       # number of WriteReq MSHR hits (Count)
board.cache_hierarchy.l1_dcaches.WriteReq.mshrHits::total        71756                       # number of WriteReq MSHR hits (Count)
board.cache_hierarchy.l1_dcaches.WriteReq.mshrMisses::processor.cores.core.data       985799                       # number of WriteReq MSHR misses (Count)
board.cache_hierarchy.l1_dcaches.WriteReq.mshrMisses::total       985799                       # number of WriteReq MSHR misses (Count)
board.cache_hierarchy.l1_dcaches.WriteReq.mshrMissLatency::processor.cores.core.data  96258452921                       # number of WriteReq MSHR miss ticks (Tick)
board.cache_hierarchy.l1_dcaches.WriteReq.mshrMissLatency::total  96258452921                       # number of WriteReq MSHR miss ticks (Tick)
board.cache_hierarchy.l1_dcaches.WriteReq.mshrMissRate::processor.cores.core.data     0.055281                       # mshr miss rate for WriteReq accesses (Ratio)
board.cache_hierarchy.l1_dcaches.WriteReq.mshrMissRate::total     0.055281                       # mshr miss rate for WriteReq accesses (Ratio)
board.cache_hierarchy.l1_dcaches.WriteReq.avgMshrMissLatency::processor.cores.core.data 97645.111144                       # average WriteReq mshr miss latency ((Tick/Count))
board.cache_hierarchy.l1_dcaches.WriteReq.avgMshrMissLatency::total 97645.111144                       # average WriteReq mshr miss latency ((Tick/Count))
board.cache_hierarchy.l1_dcaches.power_state.pwrStateResidencyTicks::UNDEFINED 274809066516                       # Cumulative time (in ticks) in various power states (Tick)
board.cache_hierarchy.l1_dcaches.prefetcher.demandMshrMisses      5171805                       # demands not covered by prefetchs (Count)
board.cache_hierarchy.l1_dcaches.prefetcher.pfIssued       147682                       # number of hwpf issued (Count)
board.cache_hierarchy.l1_dcaches.prefetcher.pfUnused          181                       # number of HardPF blocks evicted w/o reference (Count)
board.cache_hierarchy.l1_dcaches.prefetcher.pfUseful        59625                       # number of useful prefetch (Count)
board.cache_hierarchy.l1_dcaches.prefetcher.pfUsefulButMiss            0                       # number of hit on prefetch but cache block is not in an usable state (Count)
board.cache_hierarchy.l1_dcaches.prefetcher.accuracy     0.403739                       # accuracy of the prefetcher (Count)
board.cache_hierarchy.l1_dcaches.prefetcher.coverage     0.011397                       # coverage brought by this prefetcher (Count)
board.cache_hierarchy.l1_dcaches.prefetcher.pfHitInCache        86301                       # number of prefetches hitting in cache (Count)
board.cache_hierarchy.l1_dcaches.prefetcher.pfHitInMSHR          151                       # number of prefetches hitting in a MSHR (Count)
board.cache_hierarchy.l1_dcaches.prefetcher.pfHitInWB            0                       # number of prefetches hit in the Write Buffer (Count)
board.cache_hierarchy.l1_dcaches.prefetcher.pfLate        86452                       # number of late prefetches (hitting in cache, MSHR or WB) (Count)
board.cache_hierarchy.l1_dcaches.prefetcher.pfIdentified      2132433                       # number of prefetch candidates identified (Count)
board.cache_hierarchy.l1_dcaches.prefetcher.pfBufferHit      1031595                       # number of redundant prefetches already in prefetch queue (Count)
board.cache_hierarchy.l1_dcaches.prefetcher.pfInCache            0                       # number of redundant prefetches already in cache/mshr dropped (Count)
board.cache_hierarchy.l1_dcaches.prefetcher.pfRemovedDemand       507522                       # number of prefetches dropped due to a demand for the same address (Count)
board.cache_hierarchy.l1_dcaches.prefetcher.pfRemovedFull            0                       # number of prefetches dropped due to prefetch queue size (Count)
board.cache_hierarchy.l1_dcaches.prefetcher.pfSpanPage        86911                       # number of prefetches that crossed the page (Count)
board.cache_hierarchy.l1_dcaches.prefetcher.pfUsefulSpanPage        11397                       # number of prefetches that is useful and crossed the page (Count)
board.cache_hierarchy.l1_dcaches.prefetcher.power_state.pwrStateResidencyTicks::UNDEFINED 274809066516                       # Cumulative time (in ticks) in various power states (Tick)
board.cache_hierarchy.l1_dcaches.tags.tagsInUse   511.981523                       # Average ticks per tags in use ((Tick/Count))
board.cache_hierarchy.l1_dcaches.tags.totalRefs     60019817                       # Total number of references to valid blocks. (Count)
board.cache_hierarchy.l1_dcaches.tags.sampledRefs      5233039                       # Sample count of references to valid blocks. (Count)
board.cache_hierarchy.l1_dcaches.tags.avgRefs    11.469400                       # Average number of references to valid blocks. ((Count/Count))
board.cache_hierarchy.l1_dcaches.tags.warmupTick       274392                       # The tick when the warmup percentage was hit. (Tick)
board.cache_hierarchy.l1_dcaches.tags.occupancies::cache_hierarchy.l1_dcaches.prefetcher     7.405566                       # Average occupied blocks per tick, per requestor ((Count/Tick))
board.cache_hierarchy.l1_dcaches.tags.occupancies::processor.cores.core.data   504.575956                       # Average occupied blocks per tick, per requestor ((Count/Tick))
board.cache_hierarchy.l1_dcaches.tags.avgOccs::cache_hierarchy.l1_dcaches.prefetcher     0.014464                       # Average percentage of cache occupancy ((Ratio/Tick))
board.cache_hierarchy.l1_dcaches.tags.avgOccs::processor.cores.core.data     0.985500                       # Average percentage of cache occupancy ((Ratio/Tick))
board.cache_hierarchy.l1_dcaches.tags.avgOccs::total     0.999964                       # Average percentage of cache occupancy ((Ratio/Tick))
board.cache_hierarchy.l1_dcaches.tags.occupanciesTaskId::1024          512                       # Occupied blocks per task id (Count)
board.cache_hierarchy.l1_dcaches.tags.ageTaskId_1024::0          153                       # Occupied blocks per task id, per block age (Count)
board.cache_hierarchy.l1_dcaches.tags.ageTaskId_1024::1          358                       # Occupied blocks per task id, per block age (Count)
board.cache_hierarchy.l1_dcaches.tags.ageTaskId_1024::4            1                       # Occupied blocks per task id, per block age (Count)
board.cache_hierarchy.l1_dcaches.tags.ratioOccsTaskId::1024            1                       # Ratio of occupied blocks and all blocks, per task id (Ratio)
board.cache_hierarchy.l1_dcaches.tags.tagAccesses    489700791                       # Number of tag accesses (Count)
board.cache_hierarchy.l1_dcaches.tags.dataAccesses    489700791                       # Number of data accesses (Count)
board.cache_hierarchy.l1_dcaches.tags.power_state.pwrStateResidencyTicks::UNDEFINED 274809066516                       # Cumulative time (in ticks) in various power states (Tick)
board.cache_hierarchy.l1_icaches.demandHits::processor.cores.core.inst     21357793                       # number of demand (read+write) hits (Count)
board.cache_hierarchy.l1_icaches.demandHits::total     21357793                       # number of demand (read+write) hits (Count)
board.cache_hierarchy.l1_icaches.overallHits::processor.cores.core.inst     21357793                       # number of overall hits (Count)
board.cache_hierarchy.l1_icaches.overallHits::total     21357793                       # number of overall hits (Count)
board.cache_hierarchy.l1_icaches.demandMisses::processor.cores.core.inst          633                       # number of demand (read+write) misses (Count)
board.cache_hierarchy.l1_icaches.demandMisses::total          633                       # number of demand (read+write) misses (Count)
board.cache_hierarchy.l1_icaches.overallMisses::processor.cores.core.inst          633                       # number of overall misses (Count)
board.cache_hierarchy.l1_icaches.overallMisses::total          633                       # number of overall misses (Count)
board.cache_hierarchy.l1_icaches.demandMissLatency::processor.cores.core.inst     23519124                       # number of demand (read+write) miss ticks (Tick)
board.cache_hierarchy.l1_icaches.demandMissLatency::total     23519124                       # number of demand (read+write) miss ticks (Tick)
board.cache_hierarchy.l1_icaches.overallMissLatency::processor.cores.core.inst     23519124                       # number of overall miss ticks (Tick)
board.cache_hierarchy.l1_icaches.overallMissLatency::total     23519124                       # number of overall miss ticks (Tick)
board.cache_hierarchy.l1_icaches.demandAccesses::processor.cores.core.inst     21358426                       # number of demand (read+write) accesses (Count)
board.cache_hierarchy.l1_icaches.demandAccesses::total     21358426                       # number of demand (read+write) accesses (Count)
board.cache_hierarchy.l1_icaches.overallAccesses::processor.cores.core.inst     21358426                       # number of overall (read+write) accesses (Count)
board.cache_hierarchy.l1_icaches.overallAccesses::total     21358426                       # number of overall (read+write) accesses (Count)
board.cache_hierarchy.l1_icaches.demandMissRate::processor.cores.core.inst     0.000030                       # miss rate for demand accesses (Ratio)
board.cache_hierarchy.l1_icaches.demandMissRate::total     0.000030                       # miss rate for demand accesses (Ratio)
board.cache_hierarchy.l1_icaches.overallMissRate::processor.cores.core.inst     0.000030                       # miss rate for overall accesses (Ratio)
board.cache_hierarchy.l1_icaches.overallMissRate::total     0.000030                       # miss rate for overall accesses (Ratio)
board.cache_hierarchy.l1_icaches.demandAvgMissLatency::processor.cores.core.inst 37155.014218                       # average overall miss latency in ticks ((Tick/Count))
board.cache_hierarchy.l1_icaches.demandAvgMissLatency::total 37155.014218                       # average overall miss latency in ticks ((Tick/Count))
board.cache_hierarchy.l1_icaches.overallAvgMissLatency::processor.cores.core.inst 37155.014218                       # average overall miss latency ((Tick/Count))
board.cache_hierarchy.l1_icaches.overallAvgMissLatency::total 37155.014218                       # average overall miss latency ((Tick/Count))
board.cache_hierarchy.l1_icaches.blockedCycles::no_mshrs          133                       # number of cycles access was blocked (Cycle)
board.cache_hierarchy.l1_icaches.blockedCycles::no_targets            0                       # number of cycles access was blocked (Cycle)
board.cache_hierarchy.l1_icaches.blockedCauses::no_mshrs            5                       # number of times access was blocked (Count)
board.cache_hierarchy.l1_icaches.blockedCauses::no_targets            0                       # number of times access was blocked (Count)
board.cache_hierarchy.l1_icaches.avgBlocked::no_mshrs    26.600000                       # average number of cycles each access was blocked ((Cycle/Count))
board.cache_hierarchy.l1_icaches.avgBlocked::no_targets          nan                       # average number of cycles each access was blocked ((Cycle/Count))
board.cache_hierarchy.l1_icaches.demandMshrHits::processor.cores.core.inst          116                       # number of demand (read+write) MSHR hits (Count)
board.cache_hierarchy.l1_icaches.demandMshrHits::total          116                       # number of demand (read+write) MSHR hits (Count)
board.cache_hierarchy.l1_icaches.overallMshrHits::processor.cores.core.inst          116                       # number of overall MSHR hits (Count)
board.cache_hierarchy.l1_icaches.overallMshrHits::total          116                       # number of overall MSHR hits (Count)
board.cache_hierarchy.l1_icaches.demandMshrMisses::processor.cores.core.inst          517                       # number of demand (read+write) MSHR misses (Count)
board.cache_hierarchy.l1_icaches.demandMshrMisses::total          517                       # number of demand (read+write) MSHR misses (Count)
board.cache_hierarchy.l1_icaches.overallMshrMisses::processor.cores.core.inst          517                       # number of overall MSHR misses (Count)
board.cache_hierarchy.l1_icaches.overallMshrMisses::total          517                       # number of overall MSHR misses (Count)
board.cache_hierarchy.l1_icaches.demandMshrMissLatency::processor.cores.core.inst     18447867                       # number of demand (read+write) MSHR miss ticks (Tick)
board.cache_hierarchy.l1_icaches.demandMshrMissLatency::total     18447867                       # number of demand (read+write) MSHR miss ticks (Tick)
board.cache_hierarchy.l1_icaches.overallMshrMissLatency::processor.cores.core.inst     18447867                       # number of overall MSHR miss ticks (Tick)
board.cache_hierarchy.l1_icaches.overallMshrMissLatency::total     18447867                       # number of overall MSHR miss ticks (Tick)
board.cache_hierarchy.l1_icaches.demandMshrMissRate::processor.cores.core.inst     0.000024                       # mshr miss ratio for demand accesses (Ratio)
board.cache_hierarchy.l1_icaches.demandMshrMissRate::total     0.000024                       # mshr miss ratio for demand accesses (Ratio)
board.cache_hierarchy.l1_icaches.overallMshrMissRate::processor.cores.core.inst     0.000024                       # mshr miss ratio for overall accesses (Ratio)
board.cache_hierarchy.l1_icaches.overallMshrMissRate::total     0.000024                       # mshr miss ratio for overall accesses (Ratio)
board.cache_hierarchy.l1_icaches.demandAvgMshrMissLatency::processor.cores.core.inst 35682.528046                       # average overall mshr miss latency ((Tick/Count))
board.cache_hierarchy.l1_icaches.demandAvgMshrMissLatency::total 35682.528046                       # average overall mshr miss latency ((Tick/Count))
board.cache_hierarchy.l1_icaches.overallAvgMshrMissLatency::processor.cores.core.inst 35682.528046                       # average overall mshr miss latency ((Tick/Count))
board.cache_hierarchy.l1_icaches.overallAvgMshrMissLatency::total 35682.528046                       # average overall mshr miss latency ((Tick/Count))
board.cache_hierarchy.l1_icaches.replacements           65                       # number of replacements (Count)
board.cache_hierarchy.l1_icaches.ReadReq.hits::processor.cores.core.inst     21357793                       # number of ReadReq hits (Count)
board.cache_hierarchy.l1_icaches.ReadReq.hits::total     21357793                       # number of ReadReq hits (Count)
board.cache_hierarchy.l1_icaches.ReadReq.misses::processor.cores.core.inst          633                       # number of ReadReq misses (Count)
board.cache_hierarchy.l1_icaches.ReadReq.misses::total          633                       # number of ReadReq misses (Count)
board.cache_hierarchy.l1_icaches.ReadReq.missLatency::processor.cores.core.inst     23519124                       # number of ReadReq miss ticks (Tick)
board.cache_hierarchy.l1_icaches.ReadReq.missLatency::total     23519124                       # number of ReadReq miss ticks (Tick)
board.cache_hierarchy.l1_icaches.ReadReq.accesses::processor.cores.core.inst     21358426                       # number of ReadReq accesses(hits+misses) (Count)
board.cache_hierarchy.l1_icaches.ReadReq.accesses::total     21358426                       # number of ReadReq accesses(hits+misses) (Count)
board.cache_hierarchy.l1_icaches.ReadReq.missRate::processor.cores.core.inst     0.000030                       # miss rate for ReadReq accesses (Ratio)
board.cache_hierarchy.l1_icaches.ReadReq.missRate::total     0.000030                       # miss rate for ReadReq accesses (Ratio)
board.cache_hierarchy.l1_icaches.ReadReq.avgMissLatency::processor.cores.core.inst 37155.014218                       # average ReadReq miss latency ((Tick/Count))
board.cache_hierarchy.l1_icaches.ReadReq.avgMissLatency::total 37155.014218                       # average ReadReq miss latency ((Tick/Count))
board.cache_hierarchy.l1_icaches.ReadReq.mshrHits::processor.cores.core.inst          116                       # number of ReadReq MSHR hits (Count)
board.cache_hierarchy.l1_icaches.ReadReq.mshrHits::total          116                       # number of ReadReq MSHR hits (Count)
board.cache_hierarchy.l1_icaches.ReadReq.mshrMisses::processor.cores.core.inst          517                       # number of ReadReq MSHR misses (Count)
board.cache_hierarchy.l1_icaches.ReadReq.mshrMisses::total          517                       # number of ReadReq MSHR misses (Count)
board.cache_hierarchy.l1_icaches.ReadReq.mshrMissLatency::processor.cores.core.inst     18447867                       # number of ReadReq MSHR miss ticks (Tick)
board.cache_hierarchy.l1_icaches.ReadReq.mshrMissLatency::total     18447867                       # number of ReadReq MSHR miss ticks (Tick)
board.cache_hierarchy.l1_icaches.ReadReq.mshrMissRate::processor.cores.core.inst     0.000024                       # mshr miss rate for ReadReq accesses (Ratio)
board.cache_hierarchy.l1_icaches.ReadReq.mshrMissRate::total     0.000024                       # mshr miss rate for ReadReq accesses (Ratio)
board.cache_hierarchy.l1_icaches.ReadReq.avgMshrMissLatency::processor.cores.core.inst 35682.528046                       # average ReadReq mshr miss latency ((Tick/Count))
board.cache_hierarchy.l1_icaches.ReadReq.avgMshrMissLatency::total 35682.528046                       # average ReadReq mshr miss latency ((Tick/Count))
board.cache_hierarchy.l1_icaches.power_state.pwrStateResidencyTicks::UNDEFINED 274809066516                       # Cumulative time (in ticks) in various power states (Tick)
board.cache_hierarchy.l1_icaches.tags.tagsInUse   359.450259                       # Average ticks per tags in use ((Tick/Count))
board.cache_hierarchy.l1_icaches.tags.totalRefs     21358310                       # Total number of references to valid blocks. (Count)
board.cache_hierarchy.l1_icaches.tags.sampledRefs          517                       # Sample count of references to valid blocks. (Count)
board.cache_hierarchy.l1_icaches.tags.avgRefs 41312.011605                       # Average number of references to valid blocks. ((Count/Count))
board.cache_hierarchy.l1_icaches.tags.warmupTick        86580                       # The tick when the warmup percentage was hit. (Tick)
board.cache_hierarchy.l1_icaches.tags.occupancies::processor.cores.core.inst   359.450259                       # Average occupied blocks per tick, per requestor ((Count/Tick))
board.cache_hierarchy.l1_icaches.tags.avgOccs::processor.cores.core.inst     0.702051                       # Average percentage of cache occupancy ((Ratio/Tick))
board.cache_hierarchy.l1_icaches.tags.avgOccs::total     0.702051                       # Average percentage of cache occupancy ((Ratio/Tick))
board.cache_hierarchy.l1_icaches.tags.occupanciesTaskId::1024          452                       # Occupied blocks per task id (Count)
board.cache_hierarchy.l1_icaches.tags.ageTaskId_1024::0          134                       # Occupied blocks per task id, per block age (Count)
board.cache_hierarchy.l1_icaches.tags.ageTaskId_1024::4          318                       # Occupied blocks per task id, per block age (Count)
board.cache_hierarchy.l1_icaches.tags.ratioOccsTaskId::1024     0.882812                       # Ratio of occupied blocks and all blocks, per task id (Ratio)
board.cache_hierarchy.l1_icaches.tags.tagAccesses    170867925                       # Number of tag accesses (Count)
board.cache_hierarchy.l1_icaches.tags.dataAccesses    170867925                       # Number of data accesses (Count)
board.cache_hierarchy.l1_icaches.tags.power_state.pwrStateResidencyTicks::UNDEFINED 274809066516                       # Cumulative time (in ticks) in various power states (Tick)
board.cache_hierarchy.l2_bus.transDist::ReadResp      4247756                       # Transaction distribution (Count)
board.cache_hierarchy.l2_bus.transDist::WritebackDirty      2956066                       # Transaction distribution (Count)
board.cache_hierarchy.l2_bus.transDist::CleanEvict     13004085                       # Transaction distribution (Count)
board.cache_hierarchy.l2_bus.transDist::HardPFReq      9093240                       # Transaction distribution (Count)
board.cache_hierarchy.l2_bus.transDist::ReadExReq       985800                       # Transaction distribution (Count)
board.cache_hierarchy.l2_bus.transDist::ReadExResp       985800                       # Transaction distribution (Count)
board.cache_hierarchy.l2_bus.transDist::ReadSharedReq      4247756                       # Transaction distribution (Count)
board.cache_hierarchy.l2_bus.pktCount_board.cache_hierarchy.l1_icaches.mem_side_port::board.cache_hierarchy.l2_cache.cpu_side_port         1099                       # Packet count per connected requestor and responder (Count)
board.cache_hierarchy.l2_bus.pktCount_board.cache_hierarchy.l1_dcaches.mem_side_port::board.cache_hierarchy.l2_cache.cpu_side_port     15698605                       # Packet count per connected requestor and responder (Count)
board.cache_hierarchy.l2_bus.pktCount::total     15699704                       # Packet count per connected requestor and responder (Count)
board.cache_hierarchy.l2_bus.pktSize_board.cache_hierarchy.l1_icaches.mem_side_port::board.cache_hierarchy.l2_cache.cpu_side_port        33088                       # Cumulative packet size per connected requestor and responder (Byte)
board.cache_hierarchy.l2_bus.pktSize_board.cache_hierarchy.l1_dcaches.mem_side_port::board.cache_hierarchy.l2_cache.cpu_side_port    432917184                       # Cumulative packet size per connected requestor and responder (Byte)
board.cache_hierarchy.l2_bus.pktSize::total    432950272                       # Cumulative packet size per connected requestor and responder (Byte)
board.cache_hierarchy.l2_bus.snoops          19820799                       # Total snoops (Count)
board.cache_hierarchy.l2_bus.snoopTraffic     91185536                       # Total snoop traffic (Byte)
board.cache_hierarchy.l2_bus.snoopFanout::samples     25054355                       # Request fanout histogram (Count)
board.cache_hierarchy.l2_bus.snoopFanout::mean     0.000341                       # Request fanout histogram (Count)
board.cache_hierarchy.l2_bus.snoopFanout::stdev     0.018462                       # Request fanout histogram (Count)
board.cache_hierarchy.l2_bus.snoopFanout::underflows            0      0.00%      0.00% # Request fanout histogram (Count)
board.cache_hierarchy.l2_bus.snoopFanout::0     25045812     99.97%     99.97% # Request fanout histogram (Count)
board.cache_hierarchy.l2_bus.snoopFanout::1         8543      0.03%    100.00% # Request fanout histogram (Count)
board.cache_hierarchy.l2_bus.snoopFanout::2            0      0.00%    100.00% # Request fanout histogram (Count)
board.cache_hierarchy.l2_bus.snoopFanout::overflows            0      0.00%    100.00% # Request fanout histogram (Count)
board.cache_hierarchy.l2_bus.snoopFanout::min_value            0                       # Request fanout histogram (Count)
board.cache_hierarchy.l2_bus.snoopFanout::max_value            1                       # Request fanout histogram (Count)
board.cache_hierarchy.l2_bus.snoopFanout::total     25054355                       # Request fanout histogram (Count)
board.cache_hierarchy.l2_bus.power_state.pwrStateResidencyTicks::UNDEFINED 274809066516                       # Cumulative time (in ticks) in various power states (Tick)
board.cache_hierarchy.l2_bus.reqLayer0.occupancy   4523667346                       # Layer occupancy (ticks) (Tick)
board.cache_hierarchy.l2_bus.reqLayer0.utilization          0.0                       # Layer utilization (Ratio)
board.cache_hierarchy.l2_bus.respLayer0.occupancy       516483                       # Layer occupancy (ticks) (Tick)
board.cache_hierarchy.l2_bus.respLayer0.utilization          0.0                       # Layer utilization (Ratio)
board.cache_hierarchy.l2_bus.respLayer1.occupancy   5227806293                       # Layer occupancy (ticks) (Tick)
board.cache_hierarchy.l2_bus.respLayer1.utilization          0.0                       # Layer utilization (Ratio)
board.cache_hierarchy.l2_bus.snoop_filter.totRequests     10466148                       # Total number of requests made to the snoop filter. (Count)
board.cache_hierarchy.l2_bus.snoop_filter.hitSingleRequests      5232592                       # Number of requests hitting in the snoop filter with a single holder of the requested data. (Count)
board.cache_hierarchy.l2_bus.snoop_filter.hitMultiRequests            1                       # Number of requests hitting in the snoop filter with multiple (>1) holders of the requested data. (Count)
board.cache_hierarchy.l2_bus.snoop_filter.totSnoops         8542                       # Total number of snoops made to the snoop filter. (Count)
board.cache_hierarchy.l2_bus.snoop_filter.hitSingleSnoops         8542                       # Number of snoops hitting in the snoop filter with a single holder of the requested data. (Count)
board.cache_hierarchy.l2_bus.snoop_filter.hitMultiSnoops            0                       # Number of snoops hitting in the snoop filter with multiple (>1) holders of the requested data. (Count)
board.cache_hierarchy.l2_cache.demandHits::cache_hierarchy.l1_dcaches.prefetcher        23253                       # number of demand (read+write) hits (Count)
board.cache_hierarchy.l2_cache.demandHits::processor.cores.core.inst          305                       # number of demand (read+write) hits (Count)
board.cache_hierarchy.l2_cache.demandHits::processor.cores.core.data       218058                       # number of demand (read+write) hits (Count)
board.cache_hierarchy.l2_cache.demandHits::total       241616                       # number of demand (read+write) hits (Count)
board.cache_hierarchy.l2_cache.overallHits::cache_hierarchy.l1_dcaches.prefetcher        23253                       # number of overall hits (Count)
board.cache_hierarchy.l2_cache.overallHits::processor.cores.core.inst          305                       # number of overall hits (Count)
board.cache_hierarchy.l2_cache.overallHits::processor.cores.core.data       218058                       # number of overall hits (Count)
board.cache_hierarchy.l2_cache.overallHits::total       241616                       # number of overall hits (Count)
board.cache_hierarchy.l2_cache.demandMisses::cache_hierarchy.l1_dcaches.prefetcher        37977                       # number of demand (read+write) misses (Count)
board.cache_hierarchy.l2_cache.demandMisses::processor.cores.core.inst          212                       # number of demand (read+write) misses (Count)
board.cache_hierarchy.l2_cache.demandMisses::processor.cores.core.data      4953751                       # number of demand (read+write) misses (Count)
board.cache_hierarchy.l2_cache.demandMisses::total      4991940                       # number of demand (read+write) misses (Count)
board.cache_hierarchy.l2_cache.overallMisses::cache_hierarchy.l1_dcaches.prefetcher        37977                       # number of overall misses (Count)
board.cache_hierarchy.l2_cache.overallMisses::processor.cores.core.inst          212                       # number of overall misses (Count)
board.cache_hierarchy.l2_cache.overallMisses::processor.cores.core.data      4953751                       # number of overall misses (Count)
board.cache_hierarchy.l2_cache.overallMisses::total      4991940                       # number of overall misses (Count)
board.cache_hierarchy.l2_cache.demandMissLatency::cache_hierarchy.l1_dcaches.prefetcher   3114829333                       # number of demand (read+write) miss ticks (Tick)
board.cache_hierarchy.l2_cache.demandMissLatency::processor.cores.core.inst     15795855                       # number of demand (read+write) miss ticks (Tick)
board.cache_hierarchy.l2_cache.demandMissLatency::processor.cores.core.data 447212929077                       # number of demand (read+write) miss ticks (Tick)
board.cache_hierarchy.l2_cache.demandMissLatency::total 450343554265                       # number of demand (read+write) miss ticks (Tick)
board.cache_hierarchy.l2_cache.overallMissLatency::cache_hierarchy.l1_dcaches.prefetcher   3114829333                       # number of overall miss ticks (Tick)
board.cache_hierarchy.l2_cache.overallMissLatency::processor.cores.core.inst     15795855                       # number of overall miss ticks (Tick)
board.cache_hierarchy.l2_cache.overallMissLatency::processor.cores.core.data 447212929077                       # number of overall miss ticks (Tick)
board.cache_hierarchy.l2_cache.overallMissLatency::total 450343554265                       # number of overall miss ticks (Tick)
board.cache_hierarchy.l2_cache.demandAccesses::cache_hierarchy.l1_dcaches.prefetcher        61230                       # number of demand (read+write) accesses (Count)
board.cache_hierarchy.l2_cache.demandAccesses::processor.cores.core.inst          517                       # number of demand (read+write) accesses (Count)
board.cache_hierarchy.l2_cache.demandAccesses::processor.cores.core.data      5171809                       # number of demand (read+write) accesses (Count)
board.cache_hierarchy.l2_cache.demandAccesses::total      5233556                       # number of demand (read+write) accesses (Count)
board.cache_hierarchy.l2_cache.overallAccesses::cache_hierarchy.l1_dcaches.prefetcher        61230                       # number of overall (read+write) accesses (Count)
board.cache_hierarchy.l2_cache.overallAccesses::processor.cores.core.inst          517                       # number of overall (read+write) accesses (Count)
board.cache_hierarchy.l2_cache.overallAccesses::processor.cores.core.data      5171809                       # number of overall (read+write) accesses (Count)
board.cache_hierarchy.l2_cache.overallAccesses::total      5233556                       # number of overall (read+write) accesses (Count)
board.cache_hierarchy.l2_cache.demandMissRate::cache_hierarchy.l1_dcaches.prefetcher     0.620235                       # miss rate for demand accesses (Ratio)
board.cache_hierarchy.l2_cache.demandMissRate::processor.cores.core.inst     0.410058                       # miss rate for demand accesses (Ratio)
board.cache_hierarchy.l2_cache.demandMissRate::processor.cores.core.data     0.957837                       # miss rate for demand accesses (Ratio)
board.cache_hierarchy.l2_cache.demandMissRate::total     0.953833                       # miss rate for demand accesses (Ratio)
board.cache_hierarchy.l2_cache.overallMissRate::cache_hierarchy.l1_dcaches.prefetcher     0.620235                       # miss rate for overall accesses (Ratio)
board.cache_hierarchy.l2_cache.overallMissRate::processor.cores.core.inst     0.410058                       # miss rate for overall accesses (Ratio)
board.cache_hierarchy.l2_cache.overallMissRate::processor.cores.core.data     0.957837                       # miss rate for overall accesses (Ratio)
board.cache_hierarchy.l2_cache.overallMissRate::total     0.953833                       # miss rate for overall accesses (Ratio)
board.cache_hierarchy.l2_cache.demandAvgMissLatency::cache_hierarchy.l1_dcaches.prefetcher 82018.835953                       # average overall miss latency in ticks ((Tick/Count))
board.cache_hierarchy.l2_cache.demandAvgMissLatency::processor.cores.core.inst 74508.750000                       # average overall miss latency in ticks ((Tick/Count))
board.cache_hierarchy.l2_cache.demandAvgMissLatency::processor.cores.core.data 90277.635892                       # average overall miss latency in ticks ((Tick/Count))
board.cache_hierarchy.l2_cache.demandAvgMissLatency::total 90214.136040                       # average overall miss latency in ticks ((Tick/Count))
board.cache_hierarchy.l2_cache.overallAvgMissLatency::cache_hierarchy.l1_dcaches.prefetcher 82018.835953                       # average overall miss latency ((Tick/Count))
board.cache_hierarchy.l2_cache.overallAvgMissLatency::processor.cores.core.inst 74508.750000                       # average overall miss latency ((Tick/Count))
board.cache_hierarchy.l2_cache.overallAvgMissLatency::processor.cores.core.data 90277.635892                       # average overall miss latency ((Tick/Count))
board.cache_hierarchy.l2_cache.overallAvgMissLatency::total 90214.136040                       # average overall miss latency ((Tick/Count))
board.cache_hierarchy.l2_cache.blockedCycles::no_mshrs            0                       # number of cycles access was blocked (Cycle)
board.cache_hierarchy.l2_cache.blockedCycles::no_targets            0                       # number of cycles access was blocked (Cycle)
board.cache_hierarchy.l2_cache.blockedCauses::no_mshrs            0                       # number of times access was blocked (Count)
board.cache_hierarchy.l2_cache.blockedCauses::no_targets            0                       # number of times access was blocked (Count)
board.cache_hierarchy.l2_cache.avgBlocked::no_mshrs          nan                       # average number of cycles each access was blocked ((Cycle/Count))
board.cache_hierarchy.l2_cache.avgBlocked::no_targets          nan                       # average number of cycles each access was blocked ((Cycle/Count))
board.cache_hierarchy.l2_cache.writebacks::writebacks      1424774                       # number of writebacks (Count)
board.cache_hierarchy.l2_cache.writebacks::total      1424774                       # number of writebacks (Count)
board.cache_hierarchy.l2_cache.demandMshrHits::cache_hierarchy.l1_dcaches.prefetcher        17214                       # number of demand (read+write) MSHR hits (Count)
board.cache_hierarchy.l2_cache.demandMshrHits::processor.cores.core.inst           55                       # number of demand (read+write) MSHR hits (Count)
board.cache_hierarchy.l2_cache.demandMshrHits::processor.cores.core.data       448701                       # number of demand (read+write) MSHR hits (Count)
board.cache_hierarchy.l2_cache.demandMshrHits::total       465970                       # number of demand (read+write) MSHR hits (Count)
board.cache_hierarchy.l2_cache.overallMshrHits::cache_hierarchy.l1_dcaches.prefetcher        17214                       # number of overall MSHR hits (Count)
board.cache_hierarchy.l2_cache.overallMshrHits::processor.cores.core.inst           55                       # number of overall MSHR hits (Count)
board.cache_hierarchy.l2_cache.overallMshrHits::processor.cores.core.data       448701                       # number of overall MSHR hits (Count)
board.cache_hierarchy.l2_cache.overallMshrHits::total       465970                       # number of overall MSHR hits (Count)
board.cache_hierarchy.l2_cache.demandMshrMisses::cache_hierarchy.l1_dcaches.prefetcher        20763                       # number of demand (read+write) MSHR misses (Count)
board.cache_hierarchy.l2_cache.demandMshrMisses::processor.cores.core.inst          157                       # number of demand (read+write) MSHR misses (Count)
board.cache_hierarchy.l2_cache.demandMshrMisses::processor.cores.core.data      4505050                       # number of demand (read+write) MSHR misses (Count)
board.cache_hierarchy.l2_cache.demandMshrMisses::total      4525970                       # number of demand (read+write) MSHR misses (Count)
board.cache_hierarchy.l2_cache.overallMshrMisses::cache_hierarchy.l1_dcaches.prefetcher        20763                       # number of overall MSHR misses (Count)
board.cache_hierarchy.l2_cache.overallMshrMisses::cache_hierarchy.l2_cache.prefetcher      6200156                       # number of overall MSHR misses (Count)
board.cache_hierarchy.l2_cache.overallMshrMisses::processor.cores.core.inst          157                       # number of overall MSHR misses (Count)
board.cache_hierarchy.l2_cache.overallMshrMisses::processor.cores.core.data      4505050                       # number of overall MSHR misses (Count)
board.cache_hierarchy.l2_cache.overallMshrMisses::total     10726126                       # number of overall MSHR misses (Count)
board.cache_hierarchy.l2_cache.demandMshrMissLatency::cache_hierarchy.l1_dcaches.prefetcher   1595622774                       # number of demand (read+write) MSHR miss ticks (Tick)
board.cache_hierarchy.l2_cache.demandMshrMissLatency::processor.cores.core.inst     12708612                       # number of demand (read+write) MSHR miss ticks (Tick)
board.cache_hierarchy.l2_cache.demandMshrMissLatency::processor.cores.core.data 385968465846                       # number of demand (read+write) MSHR miss ticks (Tick)
board.cache_hierarchy.l2_cache.demandMshrMissLatency::total 387576797232                       # number of demand (read+write) MSHR miss ticks (Tick)
board.cache_hierarchy.l2_cache.overallMshrMissLatency::cache_hierarchy.l1_dcaches.prefetcher   1595622774                       # number of overall MSHR miss ticks (Tick)
board.cache_hierarchy.l2_cache.overallMshrMissLatency::cache_hierarchy.l2_cache.prefetcher 494289008157                       # number of overall MSHR miss ticks (Tick)
board.cache_hierarchy.l2_cache.overallMshrMissLatency::processor.cores.core.inst     12708612                       # number of overall MSHR miss ticks (Tick)
board.cache_hierarchy.l2_cache.overallMshrMissLatency::processor.cores.core.data 385968465846                       # number of overall MSHR miss ticks (Tick)
board.cache_hierarchy.l2_cache.overallMshrMissLatency::total 881865805389                       # number of overall MSHR miss ticks (Tick)
board.cache_hierarchy.l2_cache.demandMshrMissRate::cache_hierarchy.l1_dcaches.prefetcher     0.339098                       # mshr miss ratio for demand accesses (Ratio)
board.cache_hierarchy.l2_cache.demandMshrMissRate::processor.cores.core.inst     0.303675                       # mshr miss ratio for demand accesses (Ratio)
board.cache_hierarchy.l2_cache.demandMshrMissRate::processor.cores.core.data     0.871078                       # mshr miss ratio for demand accesses (Ratio)
board.cache_hierarchy.l2_cache.demandMshrMissRate::total     0.864798                       # mshr miss ratio for demand accesses (Ratio)
board.cache_hierarchy.l2_cache.overallMshrMissRate::cache_hierarchy.l1_dcaches.prefetcher     0.339098                       # mshr miss ratio for overall accesses (Ratio)
board.cache_hierarchy.l2_cache.overallMshrMissRate::cache_hierarchy.l2_cache.prefetcher          inf                       # mshr miss ratio for overall accesses (Ratio)
board.cache_hierarchy.l2_cache.overallMshrMissRate::processor.cores.core.inst     0.303675                       # mshr miss ratio for overall accesses (Ratio)
board.cache_hierarchy.l2_cache.overallMshrMissRate::processor.cores.core.data     0.871078                       # mshr miss ratio for overall accesses (Ratio)
board.cache_hierarchy.l2_cache.overallMshrMissRate::total     2.049491                       # mshr miss ratio for overall accesses (Ratio)
board.cache_hierarchy.l2_cache.demandAvgMshrMissLatency::cache_hierarchy.l1_dcaches.prefetcher 76849.336512                       # average overall mshr miss latency ((Tick/Count))
board.cache_hierarchy.l2_cache.demandAvgMshrMissLatency::processor.cores.core.inst 80946.573248                       # average overall mshr miss latency ((Tick/Count))
board.cache_hierarchy.l2_cache.demandAvgMshrMissLatency::processor.cores.core.data 85674.624221                       # average overall mshr miss latency ((Tick/Count))
board.cache_hierarchy.l2_cache.demandAvgMshrMissLatency::total 85633.973984                       # average overall mshr miss latency ((Tick/Count))
board.cache_hierarchy.l2_cache.overallAvgMshrMissLatency::cache_hierarchy.l1_dcaches.prefetcher 76849.336512                       # average overall mshr miss latency ((Tick/Count))
board.cache_hierarchy.l2_cache.overallAvgMshrMissLatency::cache_hierarchy.l2_cache.prefetcher 79722.027665                       # average overall mshr miss latency ((Tick/Count))
board.cache_hierarchy.l2_cache.overallAvgMshrMissLatency::processor.cores.core.inst 80946.573248                       # average overall mshr miss latency ((Tick/Count))
board.cache_hierarchy.l2_cache.overallAvgMshrMissLatency::processor.cores.core.data 85674.624221                       # average overall mshr miss latency ((Tick/Count))
board.cache_hierarchy.l2_cache.overallAvgMshrMissLatency::total 82216.618133                       # average overall mshr miss latency ((Tick/Count))
board.cache_hierarchy.l2_cache.replacements     10727559                       # number of replacements (Count)
board.cache_hierarchy.l2_cache.CleanEvict.mshrMisses::writebacks         2614                       # number of CleanEvict MSHR misses (Count)
board.cache_hierarchy.l2_cache.CleanEvict.mshrMisses::total         2614                       # number of CleanEvict MSHR misses (Count)
board.cache_hierarchy.l2_cache.CleanEvict.mshrMissRate::writebacks          inf                       # mshr miss rate for CleanEvict accesses (Ratio)
board.cache_hierarchy.l2_cache.CleanEvict.mshrMissRate::total          inf                       # mshr miss rate for CleanEvict accesses (Ratio)
board.cache_hierarchy.l2_cache.HardPFReq.mshrMisses::cache_hierarchy.l2_cache.prefetcher      6200156                       # number of HardPFReq MSHR misses (Count)
board.cache_hierarchy.l2_cache.HardPFReq.mshrMisses::total      6200156                       # number of HardPFReq MSHR misses (Count)
board.cache_hierarchy.l2_cache.HardPFReq.mshrMissLatency::cache_hierarchy.l2_cache.prefetcher 494289008157                       # number of HardPFReq MSHR miss ticks (Tick)
board.cache_hierarchy.l2_cache.HardPFReq.mshrMissLatency::total 494289008157                       # number of HardPFReq MSHR miss ticks (Tick)
board.cache_hierarchy.l2_cache.HardPFReq.mshrMissRate::cache_hierarchy.l2_cache.prefetcher          inf                       # mshr miss rate for HardPFReq accesses (Ratio)
board.cache_hierarchy.l2_cache.HardPFReq.mshrMissRate::total          inf                       # mshr miss rate for HardPFReq accesses (Ratio)
board.cache_hierarchy.l2_cache.HardPFReq.avgMshrMissLatency::cache_hierarchy.l2_cache.prefetcher 79722.027665                       # average HardPFReq mshr miss latency ((Tick/Count))
board.cache_hierarchy.l2_cache.HardPFReq.avgMshrMissLatency::total 79722.027665                       # average HardPFReq mshr miss latency ((Tick/Count))
board.cache_hierarchy.l2_cache.ReadExReq.hits::processor.cores.core.data         8223                       # number of ReadExReq hits (Count)
board.cache_hierarchy.l2_cache.ReadExReq.hits::total         8223                       # number of ReadExReq hits (Count)
board.cache_hierarchy.l2_cache.ReadExReq.misses::processor.cores.core.data       977577                       # number of ReadExReq misses (Count)
board.cache_hierarchy.l2_cache.ReadExReq.misses::total       977577                       # number of ReadExReq misses (Count)
board.cache_hierarchy.l2_cache.ReadExReq.missLatency::processor.cores.core.data  94843086642                       # number of ReadExReq miss ticks (Tick)
board.cache_hierarchy.l2_cache.ReadExReq.missLatency::total  94843086642                       # number of ReadExReq miss ticks (Tick)
board.cache_hierarchy.l2_cache.ReadExReq.accesses::processor.cores.core.data       985800                       # number of ReadExReq accesses(hits+misses) (Count)
board.cache_hierarchy.l2_cache.ReadExReq.accesses::total       985800                       # number of ReadExReq accesses(hits+misses) (Count)
board.cache_hierarchy.l2_cache.ReadExReq.missRate::processor.cores.core.data     0.991659                       # miss rate for ReadExReq accesses (Ratio)
board.cache_hierarchy.l2_cache.ReadExReq.missRate::total     0.991659                       # miss rate for ReadExReq accesses (Ratio)
board.cache_hierarchy.l2_cache.ReadExReq.avgMissLatency::processor.cores.core.data 97018.533212                       # average ReadExReq miss latency ((Tick/Count))
board.cache_hierarchy.l2_cache.ReadExReq.avgMissLatency::total 97018.533212                       # average ReadExReq miss latency ((Tick/Count))
board.cache_hierarchy.l2_cache.ReadExReq.mshrHits::processor.cores.core.data       448547                       # number of ReadExReq MSHR hits (Count)
board.cache_hierarchy.l2_cache.ReadExReq.mshrHits::total       448547                       # number of ReadExReq MSHR hits (Count)
board.cache_hierarchy.l2_cache.ReadExReq.mshrMisses::processor.cores.core.data       529030                       # number of ReadExReq MSHR misses (Count)
board.cache_hierarchy.l2_cache.ReadExReq.mshrMisses::total       529030                       # number of ReadExReq MSHR misses (Count)
board.cache_hierarchy.l2_cache.ReadExReq.mshrMissLatency::processor.cores.core.data  60087364488                       # number of ReadExReq MSHR miss ticks (Tick)
board.cache_hierarchy.l2_cache.ReadExReq.mshrMissLatency::total  60087364488                       # number of ReadExReq MSHR miss ticks (Tick)
board.cache_hierarchy.l2_cache.ReadExReq.mshrMissRate::processor.cores.core.data     0.536650                       # mshr miss rate for ReadExReq accesses (Ratio)
board.cache_hierarchy.l2_cache.ReadExReq.mshrMissRate::total     0.536650                       # mshr miss rate for ReadExReq accesses (Ratio)
board.cache_hierarchy.l2_cache.ReadExReq.avgMshrMissLatency::processor.cores.core.data 113580.259131                       # average ReadExReq mshr miss latency ((Tick/Count))
board.cache_hierarchy.l2_cache.ReadExReq.avgMshrMissLatency::total 113580.259131                       # average ReadExReq mshr miss latency ((Tick/Count))
board.cache_hierarchy.l2_cache.ReadSharedReq.hits::cache_hierarchy.l1_dcaches.prefetcher        23253                       # number of ReadSharedReq hits (Count)
board.cache_hierarchy.l2_cache.ReadSharedReq.hits::processor.cores.core.inst          305                       # number of ReadSharedReq hits (Count)
board.cache_hierarchy.l2_cache.ReadSharedReq.hits::processor.cores.core.data       209835                       # number of ReadSharedReq hits (Count)
board.cache_hierarchy.l2_cache.ReadSharedReq.hits::total       233393                       # number of ReadSharedReq hits (Count)
board.cache_hierarchy.l2_cache.ReadSharedReq.misses::cache_hierarchy.l1_dcaches.prefetcher        37977                       # number of ReadSharedReq misses (Count)
board.cache_hierarchy.l2_cache.ReadSharedReq.misses::processor.cores.core.inst          212                       # number of ReadSharedReq misses (Count)
board.cache_hierarchy.l2_cache.ReadSharedReq.misses::processor.cores.core.data      3976174                       # number of ReadSharedReq misses (Count)
board.cache_hierarchy.l2_cache.ReadSharedReq.misses::total      4014363                       # number of ReadSharedReq misses (Count)
board.cache_hierarchy.l2_cache.ReadSharedReq.missLatency::cache_hierarchy.l1_dcaches.prefetcher   3114829333                       # number of ReadSharedReq miss ticks (Tick)
board.cache_hierarchy.l2_cache.ReadSharedReq.missLatency::processor.cores.core.inst     15795855                       # number of ReadSharedReq miss ticks (Tick)
board.cache_hierarchy.l2_cache.ReadSharedReq.missLatency::processor.cores.core.data 352369842435                       # number of ReadSharedReq miss ticks (Tick)
board.cache_hierarchy.l2_cache.ReadSharedReq.missLatency::total 355500467623                       # number of ReadSharedReq miss ticks (Tick)
board.cache_hierarchy.l2_cache.ReadSharedReq.accesses::cache_hierarchy.l1_dcaches.prefetcher        61230                       # number of ReadSharedReq accesses(hits+misses) (Count)
board.cache_hierarchy.l2_cache.ReadSharedReq.accesses::processor.cores.core.inst          517                       # number of ReadSharedReq accesses(hits+misses) (Count)
board.cache_hierarchy.l2_cache.ReadSharedReq.accesses::processor.cores.core.data      4186009                       # number of ReadSharedReq accesses(hits+misses) (Count)
board.cache_hierarchy.l2_cache.ReadSharedReq.accesses::total      4247756                       # number of ReadSharedReq accesses(hits+misses) (Count)
board.cache_hierarchy.l2_cache.ReadSharedReq.missRate::cache_hierarchy.l1_dcaches.prefetcher     0.620235                       # miss rate for ReadSharedReq accesses (Ratio)
board.cache_hierarchy.l2_cache.ReadSharedReq.missRate::processor.cores.core.inst     0.410058                       # miss rate for ReadSharedReq accesses (Ratio)
board.cache_hierarchy.l2_cache.ReadSharedReq.missRate::processor.cores.core.data     0.949872                       # miss rate for ReadSharedReq accesses (Ratio)
board.cache_hierarchy.l2_cache.ReadSharedReq.missRate::total     0.945055                       # miss rate for ReadSharedReq accesses (Ratio)
board.cache_hierarchy.l2_cache.ReadSharedReq.avgMissLatency::cache_hierarchy.l1_dcaches.prefetcher 82018.835953                       # average ReadSharedReq miss latency ((Tick/Count))
board.cache_hierarchy.l2_cache.ReadSharedReq.avgMissLatency::processor.cores.core.inst 74508.750000                       # average ReadSharedReq miss latency ((Tick/Count))
board.cache_hierarchy.l2_cache.ReadSharedReq.avgMissLatency::processor.cores.core.data 88620.327590                       # average ReadSharedReq miss latency ((Tick/Count))
board.cache_hierarchy.l2_cache.ReadSharedReq.avgMissLatency::total 88557.130390                       # average ReadSharedReq miss latency ((Tick/Count))
board.cache_hierarchy.l2_cache.ReadSharedReq.mshrHits::cache_hierarchy.l1_dcaches.prefetcher        17214                       # number of ReadSharedReq MSHR hits (Count)
board.cache_hierarchy.l2_cache.ReadSharedReq.mshrHits::processor.cores.core.inst           55                       # number of ReadSharedReq MSHR hits (Count)
board.cache_hierarchy.l2_cache.ReadSharedReq.mshrHits::processor.cores.core.data          154                       # number of ReadSharedReq MSHR hits (Count)
board.cache_hierarchy.l2_cache.ReadSharedReq.mshrHits::total        17423                       # number of ReadSharedReq MSHR hits (Count)
board.cache_hierarchy.l2_cache.ReadSharedReq.mshrMisses::cache_hierarchy.l1_dcaches.prefetcher        20763                       # number of ReadSharedReq MSHR misses (Count)
board.cache_hierarchy.l2_cache.ReadSharedReq.mshrMisses::processor.cores.core.inst          157                       # number of ReadSharedReq MSHR misses (Count)
board.cache_hierarchy.l2_cache.ReadSharedReq.mshrMisses::processor.cores.core.data      3976020                       # number of ReadSharedReq MSHR misses (Count)
board.cache_hierarchy.l2_cache.ReadSharedReq.mshrMisses::total      3996940                       # number of ReadSharedReq MSHR misses (Count)
board.cache_hierarchy.l2_cache.ReadSharedReq.mshrMissLatency::cache_hierarchy.l1_dcaches.prefetcher   1595622774                       # number of ReadSharedReq MSHR miss ticks (Tick)
board.cache_hierarchy.l2_cache.ReadSharedReq.mshrMissLatency::processor.cores.core.inst     12708612                       # number of ReadSharedReq MSHR miss ticks (Tick)
board.cache_hierarchy.l2_cache.ReadSharedReq.mshrMissLatency::processor.cores.core.data 325881101358                       # number of ReadSharedReq MSHR miss ticks (Tick)
board.cache_hierarchy.l2_cache.ReadSharedReq.mshrMissLatency::total 327489432744                       # number of ReadSharedReq MSHR miss ticks (Tick)
board.cache_hierarchy.l2_cache.ReadSharedReq.mshrMissRate::cache_hierarchy.l1_dcaches.prefetcher     0.339098                       # mshr miss rate for ReadSharedReq accesses (Ratio)
board.cache_hierarchy.l2_cache.ReadSharedReq.mshrMissRate::processor.cores.core.inst     0.303675                       # mshr miss rate for ReadSharedReq accesses (Ratio)
board.cache_hierarchy.l2_cache.ReadSharedReq.mshrMissRate::processor.cores.core.data     0.949836                       # mshr miss rate for ReadSharedReq accesses (Ratio)
board.cache_hierarchy.l2_cache.ReadSharedReq.mshrMissRate::total     0.940953                       # mshr miss rate for ReadSharedReq accesses (Ratio)
board.cache_hierarchy.l2_cache.ReadSharedReq.avgMshrMissLatency::cache_hierarchy.l1_dcaches.prefetcher 76849.336512                       # average ReadSharedReq mshr miss latency ((Tick/Count))
board.cache_hierarchy.l2_cache.ReadSharedReq.avgMshrMissLatency::processor.cores.core.inst 80946.573248                       # average ReadSharedReq mshr miss latency ((Tick/Count))
board.cache_hierarchy.l2_cache.ReadSharedReq.avgMshrMissLatency::processor.cores.core.data 81961.635343                       # average ReadSharedReq mshr miss latency ((Tick/Count))
board.cache_hierarchy.l2_cache.ReadSharedReq.avgMshrMissLatency::total 81935.038490                       # average ReadSharedReq mshr miss latency ((Tick/Count))
board.cache_hierarchy.l2_cache.WritebackDirty.hits::writebacks      1531292                       # number of WritebackDirty hits (Count)
board.cache_hierarchy.l2_cache.WritebackDirty.hits::total      1531292                       # number of WritebackDirty hits (Count)
board.cache_hierarchy.l2_cache.WritebackDirty.accesses::writebacks      1531292                       # number of WritebackDirty accesses(hits+misses) (Count)
board.cache_hierarchy.l2_cache.WritebackDirty.accesses::total      1531292                       # number of WritebackDirty accesses(hits+misses) (Count)
board.cache_hierarchy.l2_cache.power_state.pwrStateResidencyTicks::UNDEFINED 274809066516                       # Cumulative time (in ticks) in various power states (Tick)
board.cache_hierarchy.l2_cache.prefetcher.demandMshrMisses      4525970                       # demands not covered by prefetchs (Count)
board.cache_hierarchy.l2_cache.prefetcher.pfIssued      6942283                       # number of hwpf issued (Count)
board.cache_hierarchy.l2_cache.prefetcher.pfUnused      5604305                       # number of HardPF blocks evicted w/o reference (Count)
board.cache_hierarchy.l2_cache.prefetcher.pfUseful       128016                       # number of useful prefetch (Count)
board.cache_hierarchy.l2_cache.prefetcher.pfUsefulButMiss            0                       # number of hit on prefetch but cache block is not in an usable state (Count)
board.cache_hierarchy.l2_cache.prefetcher.accuracy     0.018440                       # accuracy of the prefetcher (Count)
board.cache_hierarchy.l2_cache.prefetcher.coverage     0.027507                       # coverage brought by this prefetcher (Count)
board.cache_hierarchy.l2_cache.prefetcher.pfHitInCache       272744                       # number of prefetches hitting in cache (Count)
board.cache_hierarchy.l2_cache.prefetcher.pfHitInMSHR       469383                       # number of prefetches hitting in a MSHR (Count)
board.cache_hierarchy.l2_cache.prefetcher.pfHitInWB            0                       # number of prefetches hit in the Write Buffer (Count)
board.cache_hierarchy.l2_cache.prefetcher.pfLate       742127                       # number of late prefetches (hitting in cache, MSHR or WB) (Count)
board.cache_hierarchy.l2_cache.prefetcher.pfIdentified      9999937                       # number of prefetch candidates identified (Count)
board.cache_hierarchy.l2_cache.prefetcher.pfBufferHit          594                       # number of redundant prefetches already in prefetch queue (Count)
board.cache_hierarchy.l2_cache.prefetcher.pfInCache            0                       # number of redundant prefetches already in cache/mshr dropped (Count)
board.cache_hierarchy.l2_cache.prefetcher.pfRemovedDemand      1540891                       # number of prefetches dropped due to a demand for the same address (Count)
board.cache_hierarchy.l2_cache.prefetcher.pfRemovedFull            0                       # number of prefetches dropped due to prefetch queue size (Count)
[...]
board.processor.cores.core.fetch.nisnDist::3      2102888      0.25%     96.82% # Number of instructions fetched each cycle (Total) (Count)
board.processor.cores.core.fetch.nisnDist::4      4286751      0.52%     97.34% # Number of instructions fetched each cycle (Total) (Count)
board.processor.cores.core.fetch.nisnDist::5      1846834      0.22%     97.56% # Number of instructions fetched each cycle (Total) (Count)
board.processor.cores.core.fetch.nisnDist::6      4715792      0.57%     98.13% # Number of instructions fetched each cycle (Total) (Count)
board.processor.cores.core.fetch.nisnDist::7      2230729      0.27%     98.40% # Number of instructions fetched each cycle (Total) (Count)
board.processor.cores.core.fetch.nisnDist::8     13165460      1.60%    100.00% # Number of instructions fetched each cycle (Total) (Count)
board.processor.cores.core.fetch.nisnDist::overflows            0      0.00%    100.00% # Number of instructions fetched each cycle (Total) (Count)
board.processor.cores.core.fetch.nisnDist::min_value            0                       # Number of instructions fetched each cycle (Total) (Count)
board.processor.cores.core.fetch.nisnDist::max_value            8                       # Number of instructions fetched each cycle (Total) (Count)
board.processor.cores.core.fetch.nisnDist::total    825222137                       # Number of instructions fetched each cycle (Total) (Count)
board.processor.cores.core.fetchStats0.numInsts    188990109                       # Number of instructions fetched (thread level) (Count)
board.processor.cores.core.fetchStats0.numOps            0                       # Number of ops (including micro ops) fetched (thread level) (Count)
board.processor.cores.core.fetchStats0.fetchRate     0.229009                       # Number of inst fetches per cycle ((Count/Cycle))
board.processor.cores.core.fetchStats0.numBranches     21290712                       # Number of branches fetched (Count)
board.processor.cores.core.fetchStats0.branchRate     0.025799                       # Number of branch fetches per cycle (Ratio)
board.processor.cores.core.fetchStats0.icacheStallCycles     22418915                       # ICache total stall cycles (Cycle)
board.processor.cores.core.fetchStats0.numFetchSuspends            0                       # Number of times Execute suspended instruction fetching (Count)
board.processor.cores.core.iew.idleCycles            0                       # Number of cycles IEW is idle (Cycle)
board.processor.cores.core.iew.squashCycles      1616289                       # Number of cycles IEW is squashing (Cycle)
board.processor.cores.core.iew.blockCycles     60347289                       # Number of cycles IEW is blocking (Cycle)
board.processor.cores.core.iew.unblockCycles    545675096                       # Number of cycles IEW is unblocking (Cycle)
board.processor.cores.core.iew.dispatchedInsts    161128104                       # Number of instructions dispatched to IQ (Count)
board.processor.cores.core.iew.dispSquashedInsts          189                       # Number of squashed instructions skipped by dispatch (Count)
board.processor.cores.core.iew.dispLoadInsts     54742217                       # Number of dispatched load instructions (Count)
board.processor.cores.core.iew.dispStoreInsts     27535374                       # Number of dispatched store instructions (Count)
board.processor.cores.core.iew.dispNonSpecInsts      1607139                       # Number of dispatched non-speculative instructions (Count)
board.processor.cores.core.iew.iqFullEvents       113322                       # Number of times the IQ has become full, causing a stall (Count)
board.processor.cores.core.iew.lsqFullEvents    545355392                       # Number of times the LSQ has become full, causing a stall (Count)
board.processor.cores.core.iew.memOrderViolationEvents      1573468                       # Number of memory order violations (Count)
board.processor.cores.core.iew.predictedTakenIncorrect          994                       # Number of branches that were predicted taken incorrectly (Count)
board.processor.cores.core.iew.predictedNotTakenIncorrect        34358                       # Number of branches that were predicted not taken incorrectly (Count)
board.processor.cores.core.iew.branchMispredicts        35352                       # Number of branch mispredicts detected at execute (Count)
board.processor.cores.core.iew.instsToCommit    148220703                       # Cumulative count of insts sent to commit (Count)
board.processor.cores.core.iew.writebackCount    147687126                       # Cumulative count of insts written-back (Count)
board.processor.cores.core.iew.producerInst     97859478                       # Number of instructions producing a value (Count)
board.processor.cores.core.iew.consumerInst    120599928                       # Number of instructions consuming a value (Count)
board.processor.cores.core.iew.wbRate        0.178960                       # Insts written-back per cycle ((Count/Cycle))
board.processor.cores.core.iew.wbFanout      0.811439                       # Average fanout of values written-back ((Count/Count))
board.processor.cores.core.lsq0.forwLoads     10976674                       # Number of loads that had data forwarded from stores (Count)
board.processor.cores.core.lsq0.squashedLoads     12777372                       # Number of loads squashed (Count)
board.processor.cores.core.lsq0.ignoredResponses           61                       # Number of memory responses ignored because the instruction is squashed (Count)
board.processor.cores.core.lsq0.memOrderViolation      1573468                       # Number of memory ordering violations (Count)
board.processor.cores.core.lsq0.squashedStores      8654207                       # Number of stores squashed (Count)
board.processor.cores.core.lsq0.rescheduledLoads            1                       # Number of loads that were rescheduled (Count)
board.processor.cores.core.lsq0.blockedByCache       892585                       # Number of times an access to memory failed due to the cache being blocked (Count)
board.processor.cores.core.lsq0.loadToUse::samples     41964845                       # Distribution of cycle latency between the first time a load is issued and its completion (Unspecified)
board.processor.cores.core.lsq0.loadToUse::mean    46.699467                       # Distribution of cycle latency between the first time a load is issued and its completion (Unspecified)
board.processor.cores.core.lsq0.loadToUse::stdev   110.406138                       # Distribution of cycle latency between the first time a load is issued and its completion (Unspecified)
board.processor.cores.core.lsq0.loadToUse::0-9     34818331     82.97%     82.97% # Distribution of cycle latency between the first time a load is issued and its completion (Unspecified)
board.processor.cores.core.lsq0.loadToUse::10-19        14578      0.03%     83.00% # Distribution of cycle latency between the first time a load is issued and its completion (Unspecified)
board.processor.cores.core.lsq0.loadToUse::20-29       219131      0.52%     83.53% # Distribution of cycle latency between the first time a load is issued and its completion (Unspecified)
board.processor.cores.core.lsq0.loadToUse::30-39         9120      0.02%     83.55% # Distribution of cycle latency between the first time a load is issued and its completion (Unspecified)
board.processor.cores.core.lsq0.loadToUse::40-49        26147      0.06%     83.61% # Distribution of cycle latency between the first time a load is issued and its completion (Unspecified)
board.processor.cores.core.lsq0.loadToUse::50-59        18897      0.05%     83.66% # Distribution of cycle latency between the first time a load is issued and its completion (Unspecified)
board.processor.cores.core.lsq0.loadToUse::60-69        15630      0.04%     83.69% # Distribution of cycle latency between the first time a load is issued and its completion (Unspecified)
board.processor.cores.core.lsq0.loadToUse::70-79        35355      0.08%     83.78% # Distribution of cycle latency between the first time a load is issued and its completion (Unspecified)
board.processor.cores.core.lsq0.loadToUse::80-89        68420      0.16%     83.94% # Distribution of cycle latency between the first time a load is issued and its completion (Unspecified)
board.processor.cores.core.lsq0.loadToUse::90-99        72914      0.17%     84.11% # Distribution of cycle latency between the first time a load is issued and its completion (Unspecified)
board.processor.cores.core.lsq0.loadToUse::100-109        63721      0.15%     84.27% # Distribution of cycle latency between the first time a load is issued and its completion (Unspecified)
board.processor.cores.core.lsq0.loadToUse::110-119        91269      0.22%     84.48% # Distribution of cycle latency between the first time a load is issued and its completion (Unspecified)
board.processor.cores.core.lsq0.loadToUse::120-129        99765      0.24%     84.72% # Distribution of cycle latency between the first time a load is issued and its completion (Unspecified)
board.processor.cores.core.lsq0.loadToUse::130-139        74291      0.18%     84.90% # Distribution of cycle latency between the first time a load is issued and its completion (Unspecified)
board.processor.cores.core.lsq0.loadToUse::140-149        71060      0.17%     85.07% # Distribution of cycle latency between the first time a load is issued and its completion (Unspecified)
board.processor.cores.core.lsq0.loadToUse::150-159        86584      0.21%     85.27% # Distribution of cycle latency between the first time a load is issued and its completion (Unspecified)
board.processor.cores.core.lsq0.loadToUse::160-169        89510      0.21%     85.49% # Distribution of cycle latency between the first time a load is issued and its completion (Unspecified)
board.processor.cores.core.lsq0.loadToUse::170-179       102030      0.24%     85.73% # Distribution of cycle latency between the first time a load is issued and its completion (Unspecified)
board.processor.cores.core.lsq0.loadToUse::180-189       135691      0.32%     86.05% # Distribution of cycle latency between the first time a load is issued and its completion (Unspecified)
board.processor.cores.core.lsq0.loadToUse::190-199       176446      0.42%     86.47% # Distribution of cycle latency between the first time a load is issued and its completion (Unspecified)
board.processor.cores.core.lsq0.loadToUse::200-209       140281      0.33%     86.81% # Distribution of cycle latency between the first time a load is issued and its completion (Unspecified)
board.processor.cores.core.lsq0.loadToUse::210-219       143061      0.34%     87.15% # Distribution of cycle latency between the first time a load is issued and its completion (Unspecified)
board.processor.cores.core.lsq0.loadToUse::220-229       620507      1.48%     88.63% # Distribution of cycle latency between the first time a load is issued and its completion (Unspecified)
board.processor.cores.core.lsq0.loadToUse::230-239       308352      0.73%     89.36% # Distribution of cycle latency between the first time a load is issued and its completion (Unspecified)
board.processor.cores.core.lsq0.loadToUse::240-249        47948      0.11%     89.48% # Distribution of cycle latency between the first time a load is issued and its completion (Unspecified)
board.processor.cores.core.lsq0.loadToUse::250-259       184337      0.44%     89.92% # Distribution of cycle latency between the first time a load is issued and its completion (Unspecified)
board.processor.cores.core.lsq0.loadToUse::260-269      2209287      5.26%     95.18% # Distribution of cycle latency between the first time a load is issued and its completion (Unspecified)
board.processor.cores.core.lsq0.loadToUse::270-279        61503      0.15%     95.33% # Distribution of cycle latency between the first time a load is issued and its completion (Unspecified)
board.processor.cores.core.lsq0.loadToUse::280-289      1224648      2.92%     98.25% # Distribution of cycle latency between the first time a load is issued and its completion (Unspecified)
board.processor.cores.core.lsq0.loadToUse::290-299        18474      0.04%     98.29% # Distribution of cycle latency between the first time a load is issued and its completion (Unspecified)
board.processor.cores.core.lsq0.loadToUse::overflows       717557      1.71%    100.00% # Distribution of cycle latency between the first time a load is issued and its completion (Unspecified)
board.processor.cores.core.lsq0.loadToUse::min_value            2                       # Distribution of cycle latency between the first time a load is issued and its completion (Unspecified)
board.processor.cores.core.lsq0.loadToUse::max_value         1694                       # Distribution of cycle latency between the first time a load is issued and its completion (Unspecified)
board.processor.cores.core.lsq0.loadToUse::total     41964845                       # Distribution of cycle latency between the first time a load is issued and its completion (Unspecified)
board.processor.cores.core.mmu.dtb.readHits            0                       # read hits (Count)
board.processor.cores.core.mmu.dtb.readMisses            0                       # read misses (Count)
board.processor.cores.core.mmu.dtb.readAccesses            0                       # read accesses (Count)
board.processor.cores.core.mmu.dtb.writeHits            0                       # write hits (Count)
board.processor.cores.core.mmu.dtb.writeMisses            0                       # write misses (Count)
board.processor.cores.core.mmu.dtb.writeAccesses            0                       # write accesses (Count)
board.processor.cores.core.mmu.dtb.hits             0                       # Total TLB (read and write) hits (Count)
board.processor.cores.core.mmu.dtb.misses            0                       # Total TLB (read and write) misses (Count)
board.processor.cores.core.mmu.dtb.accesses            0                       # Total TLB (read and write) accesses (Count)
board.processor.cores.core.mmu.dtb.walker.num_4kb_walks            0                       # Completed page walks with 4KB pages (Count)
board.processor.cores.core.mmu.dtb.walker.num_2mb_walks            0                       # Completed page walks with 2MB pages (Count)
board.processor.cores.core.mmu.dtb.walker.power_state.pwrStateResidencyTicks::UNDEFINED 274809066516                       # Cumulative time (in ticks) in various power states (Tick)
board.processor.cores.core.mmu.itb.readHits            0                       # read hits (Count)
board.processor.cores.core.mmu.itb.readMisses            0                       # read misses (Count)
board.processor.cores.core.mmu.itb.readAccesses            0                       # read accesses (Count)
board.processor.cores.core.mmu.itb.writeHits            0                       # write hits (Count)
board.processor.cores.core.mmu.itb.writeMisses            0                       # write misses (Count)
board.processor.cores.core.mmu.itb.writeAccesses            0                       # write accesses (Count)
board.processor.cores.core.mmu.itb.hits             0                       # Total TLB (read and write) hits (Count)
board.processor.cores.core.mmu.itb.misses            0                       # Total TLB (read and write) misses (Count)
board.processor.cores.core.mmu.itb.accesses            0                       # Total TLB (read and write) accesses (Count)
board.processor.cores.core.mmu.itb.walker.num_4kb_walks            0                       # Completed page walks with 4KB pages (Count)
board.processor.cores.core.mmu.itb.walker.num_2mb_walks            0                       # Completed page walks with 2MB pages (Count)
board.processor.cores.core.mmu.itb.walker.power_state.pwrStateResidencyTicks::UNDEFINED 274809066516                       # Cumulative time (in ticks) in various power states (Tick)
board.processor.cores.core.power_state.pwrStateResidencyTicks::ON 274809066516                       # Cumulative time (in ticks) in various power states (Tick)
board.processor.cores.core.rename.squashCycles      1616289                       # Number of cycles rename is squashing (Cycle)
board.processor.cores.core.rename.idleCycles     14685535                       # Number of cycles rename is idle (Cycle)
board.processor.cores.core.rename.blockCycles    612271990                       # Number of cycles rename is blocking (Cycle)
board.processor.cores.core.rename.serializeStallCycles    112112679                       # count of cycles rename stalled for serializing inst (Cycle)
board.processor.cores.core.rename.runCycles     21581880                       # Number of cycles rename is running (Cycle)
board.processor.cores.core.rename.unblockCycles     62953764                       # Number of cycles rename is unblocking (Cycle)
board.processor.cores.core.rename.renamedInsts    162115617                       # Number of instructions processed by rename (Count)
board.processor.cores.core.rename.ROBFullEvents          102                       # Number of times rename has blocked due to ROB full (Count)
board.processor.cores.core.rename.IQFullEvents     29182225                       # Number of times rename has blocked due to IQ full (Count)
board.processor.cores.core.rename.LQFullEvents     50879104                       # Number of times rename has blocked due to LQ full (Count)
board.processor.cores.core.rename.SQFullEvents      3792396                       # Number of times rename has blocked due to SQ full (Count)
board.processor.cores.core.rename.renamedOperands    122234329                       # Number of destination operands rename has renamed (Count)
board.processor.cores.core.rename.lookups    195596545                       # Number of register rename lookups that rename has made (Count)
board.processor.cores.core.rename.intLookups    194012468                       # Number of integer rename lookups (Count)
board.processor.cores.core.rename.fpLookups           15                       # Number of floating rename lookups (Count)
board.processor.cores.core.rename.committedMaps     91841793                       # Number of HB maps that are committed (Count)
board.processor.cores.core.rename.undoneMaps     30392536                       # Number of HB maps that are undone due to squashing (Count)
board.processor.cores.core.rename.serializing      1049887                       # count of serializing insts renamed (Count)
board.processor.cores.core.rename.tempSerializing      1049887                       # count of temporary serializing insts renamed (Count)
board.processor.cores.core.rename.skidInsts     49369982                       # count of insts added to the skid buffer (Count)
board.processor.cores.core.rob.reads        965117737                       # The number of ROB reads (Count)
board.processor.cores.core.rob.writes       328867853                       # The number of ROB writes (Count)
board.processor.cores.core.thread_0.numInsts    120190277                       # Number of Instructions committed (Count)
board.processor.cores.core.thread_0.numOps    121238904                       # Number of Ops committed (Count)
board.processor.cores.core.thread_0.numMemRefs            0                       # Number of Memory References (Count)
board.processor.cores.core.workload.numSyscalls           20                       # Number of system calls (Count)
board.workload.inst.arm                             0                       # number of arm instructions executed (Count)
board.workload.inst.quiesce                         0                       # number of quiesce instructions executed (Count)

---------- End Simulation Statistics   ----------
